xflr5 v6.11

 Calculated polar for: NACA 63012 AIRFOIL

 1 1 Reynolds number fixed          Mach number fixed         

 xtrf =   0.050 (top)        0.100 (bottom)
 Mach =   0.450     Re =     0.900 e 6     Ncrit =   2.000

  alpha     CL        CD       CDp       Cm    Top Xtr Bot Xtr   Cpmin    Chinge    XCp    
 ------- -------- --------- --------- -------- ------- ------- -------- --------- ---------
  -2.000  -0.2445   0.01094   0.00224  -0.0020  0.0500  0.1000  -0.7235   0.0000   0.2378
  -1.900  -0.2324   0.01093   0.00222  -0.0018  0.0500  0.1000  -0.6868   0.0000   0.2380
  -1.800  -0.2202   0.01092   0.00219  -0.0017  0.0500  0.1000  -0.6507   0.0000   0.2382
  -1.700  -0.2081   0.01091   0.00217  -0.0016  0.0500  0.1000  -0.6169   0.0000   0.2384
  -1.600  -0.1959   0.01090   0.00214  -0.0015  0.0500  0.1000  -0.5836   0.0000   0.2386
  -1.500  -0.1838   0.01089   0.00212  -0.0013  0.0500  0.1000  -0.5560   0.0000   0.2388
  -1.400  -0.1717   0.01088   0.00211  -0.0012  0.0500  0.1000  -0.5378   0.0000   0.2390
  -1.300  -0.1595   0.01088   0.00209  -0.0011  0.0500  0.1000  -0.5223   0.0000   0.2392
  -1.200  -0.1474   0.01087   0.00207  -0.0010  0.0500  0.1000  -0.5070   0.0000   0.2395
  -1.100  -0.1353   0.01087   0.00206  -0.0009  0.0500  0.1000  -0.4917   0.0000   0.2397
  -1.000  -0.1231   0.01086   0.00205  -0.0008  0.0500  0.1000  -0.4772   0.0000   0.2400
  -0.900  -0.1110   0.01086   0.00203  -0.0006  0.0500  0.1000  -0.4690   0.0000   0.2404
  -0.800  -0.0989   0.01086   0.00203  -0.0005  0.0500  0.1000  -0.4615   0.0000   0.2408
  -0.700  -0.0868   0.01086   0.00202  -0.0004  0.0500  0.1000  -0.4539   0.0000   0.2413
  -0.600  -0.0747   0.01085   0.00201  -0.0003  0.0500  0.1000  -0.4464   0.0000   0.2419
  -0.500  -0.0625   0.01085   0.00200  -0.0002  0.0500  0.1000  -0.4390   0.0000   0.2428
  -0.400  -0.0504   0.01085   0.00200  -0.0001  0.0500  0.1000  -0.4317   0.0000   0.2442
  -0.300  -0.0383   0.01086   0.00200  -0.0000  0.0500  0.1000  -0.4243   0.0000   0.2463
  -0.200  -0.0262   0.01086   0.00200   0.0001  0.0500  0.1000  -0.4170   0.0000   0.2504
  -0.100  -0.0141   0.01086   0.00200   0.0002  0.0500  0.1000  -0.4097   0.0000   0.2614
   0.000  -0.0020   0.01087   0.00200   0.0003  0.0500  0.1000  -0.4026   0.0000   0.4065
   0.100   0.0101   0.01087   0.00200   0.0004  0.0500  0.1000  -0.4081   0.0000   0.2040
   0.200   0.0222   0.01088   0.00200   0.0005  0.0500  0.1000  -0.4154   0.0000   0.2222
   0.300   0.0343   0.01088   0.00201   0.0006  0.0500  0.1000  -0.4228   0.0000   0.2276
   0.400   0.0464   0.01089   0.00202   0.0007  0.0500  0.1000  -0.4301   0.0000   0.2301
   0.500   0.0585   0.01090   0.00203   0.0008  0.0500  0.1000  -0.4374   0.0000   0.2316
   0.600   0.0706   0.01091   0.00204   0.0010  0.0500  0.1000  -0.4449   0.0000   0.2325
   0.700   0.0827   0.01092   0.00205   0.0011  0.0500  0.1000  -0.4524   0.0000   0.2332
   0.800   0.0948   0.01093   0.00206   0.0012  0.0500  0.1000  -0.4599   0.0000   0.2337
   0.900   0.1069   0.01094   0.00207   0.0013  0.0500  0.1000  -0.4674   0.0000   0.2340
   1.000   0.1190   0.01095   0.00209   0.0014  0.0500  0.1000  -0.4751   0.0000   0.2343
   1.100   0.1311   0.01097   0.00211   0.0015  0.0500  0.1000  -0.4829   0.0000   0.2344
   1.200   0.1432   0.01098   0.00213   0.0016  0.0500  0.1000  -0.4919   0.0000   0.2346
   1.300   0.1553   0.01099   0.00215   0.0018  0.0500  0.1000  -0.5119   0.0000   0.2347
   1.400   0.1673   0.01101   0.00217   0.0019  0.0500  0.1000  -0.5332   0.0000   0.2348
   1.500   0.1794   0.01103   0.00219   0.0020  0.0500  0.1000  -0.5548   0.0000   0.2348
   1.600   0.1915   0.01105   0.00221   0.0021  0.0500  0.1000  -0.5773   0.0000   0.2348
   1.700   0.2036   0.01106   0.00224   0.0023  0.0500  0.1000  -0.6097   0.0000   0.2348
   1.800   0.2157   0.01108   0.00227   0.0024  0.0500  0.1000  -0.6433   0.0000   0.2348
   1.900   0.2278   0.01110   0.00230   0.0025  0.0500  0.1000  -0.6788   0.0000   0.2347
   2.000   0.2398   0.01113   0.00233   0.0027  0.0500  0.1000  -0.7153   0.0000   0.2347
   2.100   0.2519   0.01115   0.00236   0.0028  0.0500  0.1000  -0.7522   0.0000   0.2346
   2.200   0.2640   0.01117   0.00240   0.0030  0.0500  0.1000  -0.7963   0.0000   0.2345
   2.300   0.2761   0.01120   0.00243   0.0031  0.0500  0.1000  -0.8536   0.0000   0.2345
   2.400   0.2882   0.01122   0.00247   0.0033  0.0500  0.1000  -0.9120   0.0000   0.2343
   2.500   0.3002   0.01125   0.00251   0.0034  0.0500  0.1000  -0.9714   0.0000   0.2342
   2.600   0.3123   0.01128   0.00255   0.0036  0.0500  0.1000  -1.0319   0.0000   0.2341
   2.700   0.3244   0.01131   0.00260   0.0038  0.0500  0.1000  -1.0934   0.0000   0.2340
   2.800   0.3364   0.01134   0.00264   0.0040  0.0500  0.1000  -1.1561   0.0000   0.2338
   2.900   0.3485   0.01137   0.00269   0.0041  0.0500  0.1000  -1.2197   0.0000   0.2337
   3.000   0.3606   0.01140   0.00274   0.0043  0.0500  0.1000  -1.2845   0.0000   0.2335
   3.100   0.3726   0.01144   0.00279   0.0045  0.0500  0.1000  -1.3503   0.0000   0.2333
   3.200   0.3847   0.01147   0.00284   0.0047  0.0500  0.1000  -1.4172   0.0000   0.2332
   3.300   0.3967   0.01151   0.00290   0.0049  0.0500  0.1000  -1.4851   0.0000   0.2330
   3.400   0.4084   0.01158   0.00297   0.0052  0.0466  0.1000  -1.5529   0.0000   0.2326
   3.500   0.4195   0.01168   0.00306   0.0055  0.0391  0.1000  -1.6205   0.0000   0.2321
   3.600   0.4308   0.01178   0.00315   0.0059  0.0333  0.1000  -1.6895   0.0000   0.2316
   3.700   0.4422   0.01187   0.00323   0.0062  0.0297  0.1000  -1.7615   0.0000   0.2311
   3.800   0.4538   0.01194   0.00332   0.0065  0.0273  0.1000  -1.8378   0.0000   0.2308
   3.900   0.4654   0.01202   0.00340   0.0068  0.0254  0.1000  -1.9156   0.0000   0.2304
   4.000   0.4769   0.01210   0.00349   0.0071  0.0236  0.1000  -1.9944   0.0000   0.2300
   4.100   0.4885   0.01217   0.00358   0.0074  0.0218  0.1000  -2.0746   0.0000   0.2297
   4.200   0.5000   0.01226   0.00367   0.0078  0.0201  0.1000  -2.1560   0.0000   0.2293
   4.300   0.5115   0.01234   0.00377   0.0081  0.0185  0.1000  -2.2387   0.0000   0.2289
   4.400   0.5230   0.01243   0.00387   0.0085  0.0172  0.1000  -2.3227   0.0000   0.2285
   4.500   0.5345   0.01252   0.00397   0.0088  0.0161  0.1000  -2.4080   0.0000   0.2281
   4.600   0.5459   0.01261   0.00408   0.0092  0.0152  0.1000  -2.4946   0.0000   0.2277
   4.700   0.5574   0.01269   0.00419   0.0096  0.0146  0.1000  -2.5824   0.0000   0.2272
   4.800   0.5688   0.01279   0.00430   0.0100  0.0140  0.1000  -2.6715   0.0000   0.2268
   4.900   0.5802   0.01289   0.00442   0.0104  0.0135  0.1000  -2.7618   0.0000   0.2264
   5.000   0.5916   0.01298   0.00455   0.0108  0.0131  0.1000  -2.8532   0.0000   0.2259
   5.100   0.6029   0.01309   0.00467   0.0113  0.0127  0.1000  -2.9458   0.0000   0.2255
   5.200   0.6142   0.01319   0.00481   0.0117  0.0124  0.1000  -3.0395   0.0000   0.2250
   5.300   0.6255   0.01330   0.00494   0.0122  0.0121  0.1000  -3.1345   0.0000   0.2245
   5.400   0.6366   0.01342   0.00508   0.0127  0.0118  0.1000  -3.2308   0.0000   0.2240
   5.500   0.6477   0.01354   0.00523   0.0132  0.0115  0.1000  -3.3284   0.0000   0.2235
   5.600   0.6587   0.01366   0.00539   0.0137  0.0113  0.1000  -3.4307   0.0000   0.2230
   5.700   0.6698   0.01379   0.00555   0.0142  0.0110  0.1000  -3.5361   0.0000   0.2224
   5.800   0.6807   0.01392   0.00572   0.0148  0.0108  0.1000  -3.6428   0.0000   0.2218
   5.900   0.6915   0.01406   0.00589   0.0154  0.0106  0.1000  -3.7508   0.0000   0.2213
   6.000   0.7023   0.01421   0.00607   0.0160  0.0104  0.1000  -3.8599   0.0000   0.2206
   6.100   0.7129   0.01436   0.00626   0.0166  0.0102  0.1000  -3.9698   0.0000   0.2200
   6.200   0.7234   0.01452   0.00646   0.0172  0.0101  0.1000  -4.0808   0.0000   0.2194
   6.300   0.7338   0.01468   0.00667   0.0179  0.0100  0.1000  -4.1928   0.0000   0.2187
   6.400   0.7441   0.01486   0.00688   0.0186  0.0099  0.1000  -4.3057   0.0000   0.2180
   6.500   0.7542   0.01504   0.00711   0.0193  0.0098  0.1000  -4.4178   0.0000   0.2172
   6.600   0.7642   0.01524   0.00735   0.0201  0.0097  0.1000  -4.5287   0.0000   0.2165
   6.700   0.7740   0.01544   0.00760   0.0209  0.0096  0.1000  -4.6392   0.0000   0.2157
   6.800   0.7836   0.01566   0.00787   0.0217  0.0095  0.1000  -4.7546   0.0000   0.2148
   6.900   0.7929   0.01589   0.00816   0.0226  0.0094  0.1000  -4.8714   0.0000   0.2139
   7.000   0.8020   0.01613   0.00846   0.0235  0.0092  0.1000  -4.9878   0.0000   0.2130
   7.100   0.8109   0.01639   0.00877   0.0244  0.0091  0.1000  -5.1039   0.0000   0.2120
   7.200   0.8195   0.01666   0.00910   0.0254  0.0089  0.1000  -5.2197   0.0000   0.2110
   7.300   0.8278   0.01694   0.00945   0.0264  0.0088  0.1000  -5.3350   0.0000   0.2100
   7.400   0.8359   0.01724   0.00982   0.0275  0.0087  0.1000  -5.4493   0.0000   0.2089
   7.500   0.8436   0.01756   0.01020   0.0286  0.0086  0.1000  -5.5616   0.0000   0.2078
   7.600   0.8510   0.01790   0.01061   0.0297  0.0085  0.1000  -5.6708   0.0000   0.2066
   7.700   0.8580   0.01826   0.01104   0.0309  0.0084  0.1000  -5.7777   0.0000   0.2053
   7.800   0.8639   0.01865   0.01151   0.0323  0.0083  0.1000  -5.8802   0.0000   0.2039
   7.900   0.8683   0.01908   0.01203   0.0338  0.0082  0.1000  -5.9658   0.0000   0.2022
   8.000   0.8720   0.01954   0.01258   0.0355  0.0081  0.1000  -6.0441   0.0000   0.2003
   8.100   0.8754   0.02005   0.01318   0.0371  0.0080  0.1000  -6.1163   0.0000   0.1984
   8.200   0.8787   0.02063   0.01386   0.0387  0.0079  0.1000  -6.1836   0.0000   0.1967
   8.300   0.8818   0.02129   0.01462   0.0402  0.0077  0.1000  -6.2461   0.0000   0.1950
   8.400   0.8847   0.02199   0.01543   0.0417  0.0076  0.1000  -6.3042   0.0000   0.1933
   8.500   0.8873   0.02275   0.01630   0.0432  0.0074  0.1000  -6.3575   0.0000   0.1917
   8.600   0.8893   0.02356   0.01723   0.0446  0.0073  0.1000  -6.4044   0.0000   0.1900
   8.700   0.8906   0.02443   0.01821   0.0460  0.0072  0.1000  -6.4501   0.0000   0.1884
   8.800   0.8913   0.02534   0.01923   0.0474  0.0071  0.1000  -6.4920   0.0000   0.1868
   8.900   0.8914   0.02630   0.02031   0.0487  0.0071  0.1000  -6.5281   0.0000   0.1851
   9.000   0.8902   0.02735   0.02147   0.0500  0.0070  0.1000  -6.5477   0.0000   0.1834
   9.100   0.8868   0.02859   0.02283   0.0514  0.0069  0.1000  -6.5326   0.0000   0.1816
   9.200   0.8826   0.02989   0.02425   0.0526  0.0068  0.1000  -6.5099   0.0000   0.1798
   9.300   0.8777   0.03124   0.02571   0.0537  0.0067  0.1000  -6.4829   0.0000   0.1780
   9.400   0.8723   0.03264   0.02722   0.0546  0.0066  0.1000  -6.4541   0.0000   0.1764
   9.500   0.8665   0.03408   0.02876   0.0554  0.0066  0.1000  -6.4250   0.0000   0.1749
   9.600   0.8605   0.03556   0.03034   0.0560  0.0065  0.1000  -6.3961   0.0000   0.1736
   9.700   0.8544   0.03710   0.03196   0.0564  0.0064  0.1000  -6.3676   0.0000   0.1725
   9.800   0.8480   0.03869   0.03363   0.0567  0.0063  0.1000  -6.3394   0.0000   0.1715
   9.900   0.8416   0.04034   0.03535   0.0568  0.0063  0.1000  -6.3111   0.0000   0.1707
  10.000   0.8350   0.04205   0.03713   0.0567  0.0063  0.1000  -6.2826   0.0000   0.1701
  10.100   0.8284   0.04382   0.03898   0.0564  0.0062  0.1000  -6.2534   0.0000   0.1697
  10.200   0.8217   0.04568   0.04089   0.0559  0.0062  0.1000  -6.2234   0.0000   0.1695
  10.300   0.8149   0.04761   0.04289   0.0553  0.0062  0.1000  -6.1924   0.0000   0.1696
  10.400   0.8080   0.04962   0.04496   0.0544  0.0062  0.1000  -6.1616   0.0000   0.1698
  10.500   0.8012   0.05172   0.04711   0.0534  0.0061  0.1000  -6.1291   0.0000   0.1703
  10.600   0.7942   0.05391   0.04935   0.0523  0.0061  0.1000  -6.0943   0.0000   0.1710
  10.700   0.7873   0.05620   0.05169   0.0510  0.0061  0.1000  -6.0569   0.0000   0.1719
  10.800   0.7804   0.05860   0.05413   0.0495  0.0061  0.1000  -6.0165   0.0000   0.1731
  10.900   0.7735   0.06111   0.05668   0.0478  0.0061  0.1000  -5.9725   0.0000   0.1745
  11.000   0.7666   0.06375   0.05936   0.0460  0.0061  0.1000  -5.9240   0.0000   0.1761
  11.100   0.7597   0.06651   0.06216   0.0440  0.0061  0.1000  -5.8700   0.0000   0.1780
  11.200   0.7528   0.06943   0.06512   0.0420  0.0061  0.1000  -5.8089   0.0000   0.1801
  11.300   0.7458   0.07253   0.06824   0.0398  0.0062  0.1000  -5.7382   0.0000   0.1824
  11.400   0.7388   0.07581   0.07155   0.0375  0.0062  0.1000  -5.6544   0.0000   0.1849
  11.500   0.7315   0.07935   0.07511   0.0351  0.0062  0.1000  -5.5508   0.0000   0.1875
  11.600   0.7235   0.08330   0.07907   0.0328  0.0062  0.1000  -5.4087   0.0000   0.1902
  11.700   0.7158   0.08699   0.08276   0.0307  0.0063  0.1000  -5.2764   0.0000   0.1927
  11.800   0.7089   0.09035   0.08611   0.0287  0.0063  0.1000  -5.1638   0.0000   0.1950
  11.900   0.7024   0.09354   0.08929   0.0269  0.0063  0.1000  -5.0592   0.0000   0.1972
  12.000   0.6963   0.09664   0.09237   0.0251  0.0063  0.1000  -4.9591   0.0000   0.1993
  12.100   0.6906   0.09966   0.09539   0.0234  0.0063  0.1000  -4.8622   0.0000   0.2015
  12.200   0.6854   0.10261   0.09833   0.0217  0.0062  0.1000  -4.7684   0.0000   0.2036
  12.300   0.6806   0.10550   0.10121   0.0201  0.0062  0.1000  -4.6779   0.0000   0.2057
  12.400   0.6762   0.10833   0.10403   0.0185  0.0062  0.1000  -4.5912   0.0000   0.2078
  12.500   0.6723   0.11109   0.10679   0.0170  0.0061  0.1000  -4.5086   0.0000   0.2098
  12.600   0.6690   0.11379   0.10948   0.0155  0.0061  0.1000  -4.4305   0.0000   0.2118
  12.700   0.6661   0.11642   0.11210   0.0140  0.0061  0.1000  -4.3577   0.0000   0.2138
  12.800   0.6637   0.11898   0.11465   0.0127  0.0060  0.1000  -4.2904   0.0000   0.2157
  12.900   0.6617   0.12146   0.11713   0.0113  0.0060  0.1000  -4.2291   0.0000   0.2176
  13.000   0.6603   0.12388   0.11954   0.0100  0.0059  0.1000  -4.1737   0.0000   0.2195
  13.100   0.6592   0.12622   0.12188   0.0088  0.0059  0.1000  -4.1245   0.0000   0.2212
  13.200   0.6586   0.12850   0.12416   0.0076  0.0059  0.1000  -4.0812   0.0000   0.2230
  13.300   0.6582   0.13074   0.12639   0.0064  0.0058  0.1000  -4.0417   0.0000   0.2247
  13.400   0.6562   0.13344   0.12908   0.0050  0.0057  0.1000  -3.9420   0.0000   0.2267
  13.500   0.6546   0.13606   0.13170   0.0036  0.0056  0.1000  -3.8497   0.0000   0.2287
  13.600   0.6537   0.13857   0.13421   0.0023  0.0055  0.1000  -3.7683   0.0000   0.2306
  13.700   0.6533   0.14097   0.13660   0.0011  0.0054  0.1000  -3.6992   0.0000   0.2325
  13.800   0.6535   0.14326   0.13889  -0.0001  0.0053  0.1000  -3.6442   0.0000   0.2342
  13.900   0.6542   0.14544   0.14107  -0.0012  0.0052  0.1000  -3.6028   0.0000   0.2358
  14.000   0.6552   0.14755   0.14318  -0.0023  0.0051  0.1000  -3.5700   0.0000   0.2373
  14.100   0.6565   0.14958   0.14521  -0.0033  0.0050  0.1000  -3.5431   0.0000   0.2388
  14.200   0.6580   0.15157   0.14720  -0.0043  0.0050  0.1000  -3.5210   0.0000   0.2402
  14.300   0.6597   0.15351   0.14914  -0.0053  0.0049  0.1000  -3.5038   0.0000   0.2416
  14.400   0.6617   0.15541   0.15104  -0.0063  0.0048  0.1000  -3.4911   0.0000   0.2430
  14.500   0.6638   0.15726   0.15289  -0.0073  0.0048  0.1000  -3.4827   0.0000   0.2443
  14.600   0.6657   0.15918   0.15481  -0.0082  0.0047  0.1000  -3.4643   0.0000   0.2456
  14.700   0.6669   0.16141   0.15704  -0.0093  0.0046  0.1000  -3.4047   0.0000   0.2472
  14.800   0.6683   0.16357   0.15921  -0.0104  0.0045  0.1000  -3.3527   0.0000   0.2487
  14.900   0.6700   0.16565   0.16128  -0.0115  0.0044  0.1000  -3.3105   0.0000   0.2501
  15.000   0.6721   0.16762   0.16325  -0.0125  0.0043  0.1000  -3.2784   0.0000   0.2514
  15.100   0.6743   0.16953   0.16516  -0.0134  0.0042  0.1000  -3.2547   0.0000   0.2527
  15.200   0.6768   0.17141   0.16705  -0.0144  0.0041  0.1000  -3.2418   0.0000   0.2540
  15.300   0.6794   0.17322   0.16886  -0.0153  0.0040  0.1000  -3.2343   0.0000   0.2551
  15.400   0.6821   0.17502   0.17066  -0.0163  0.0040  0.1000  -3.2295   0.0000   0.2563
  15.500   0.6850   0.17679   0.17243  -0.0172  0.0039  0.1000  -3.2279   0.0000   0.2574
  15.600   0.6879   0.17853   0.17417  -0.0181  0.0039  0.1000  -3.2295   0.0000   0.2586
  15.700   0.6909   0.18025   0.17590  -0.0190  0.0038  0.1000  -3.2342   0.0000   0.2596
  15.800   0.6936   0.18210   0.17775  -0.0200  0.0038  0.1000  -3.2171   0.0000   0.2608
  15.900   0.6960   0.18414   0.17978  -0.0210  0.0037  0.1000  -3.1785   0.0000   0.2620
  16.000   0.6986   0.18611   0.18176  -0.0220  0.0036  0.1000  -3.1438   0.0000   0.2633
  16.100   0.7012   0.18802   0.18367  -0.0230  0.0035  0.1000  -3.1156   0.0000   0.2644
  16.200   0.7041   0.18991   0.18557  -0.0239  0.0034  0.1000  -3.0949   0.0000   0.2655
  16.300   0.7071   0.19173   0.18739  -0.0249  0.0033  0.1000  -3.0811   0.0000   0.2666
  16.400   0.7102   0.19349   0.18915  -0.0258  0.0033  0.1000  -3.0733   0.0000   0.2676
  16.500   0.7134   0.19525   0.19092  -0.0267  0.0032  0.1000  -3.0697   0.0000   0.2686
  16.600   0.7167   0.19696   0.19262  -0.0276  0.0031  0.1000  -3.0683   0.0000   0.2696
  16.700   0.7200   0.19868   0.19435  -0.0285  0.0031  0.1000  -3.0731   0.0000   0.2706
  16.800   0.7234   0.20037   0.19604  -0.0294  0.0031  0.1000  -3.0810   0.0000   0.2715
  16.900   0.7269   0.20205   0.19772  -0.0303  0.0030  0.1000  -3.0914   0.0000   0.2724
  17.000   0.7300   0.20391   0.19958  -0.0313  0.0030  0.1000  -3.0742   0.0000   0.2734
  17.100   0.7331   0.20583   0.20151  -0.0323  0.0029  0.1000  -3.0478   0.0000   0.2745
  17.200   0.7362   0.20773   0.20341  -0.0332  0.0029  0.1000  -3.0239   0.0000   0.2755
  17.300   0.7394   0.20961   0.20530  -0.0342  0.0028  0.1000  -3.0024   0.0000   0.2765
  17.400   0.7426   0.21146   0.20715  -0.0352  0.0027  0.1000  -2.9854   0.0000   0.2774
  17.500   0.7460   0.21327   0.20896  -0.0361  0.0026  0.1000  -2.9740   0.0000   0.2784
  17.600   0.7494   0.21503   0.21072  -0.0370  0.0026  0.1000  -2.9682   0.0000   0.2793
  17.700   0.7529   0.21677   0.21246  -0.0380  0.0025  0.1000  -2.9673   0.0000   0.2801
  17.800   0.7565   0.21849   0.21419  -0.0389  0.0024  0.1000  -2.9701   0.0000   0.2810
  17.900   0.7601   0.22018   0.21588  -0.0398  0.0024  0.1000  -2.9749   0.0000   0.2818
  18.000   0.7637   0.22190   0.21761  -0.0407  0.0024  0.1000  -2.9802   0.0000   0.2826
  18.100   0.7674   0.22358   0.21929  -0.0417  0.0023  0.1000  -2.9877   0.0000   0.2834
  18.200   0.7710   0.22530   0.22101  -0.0426  0.0023  0.1000  -2.9857   0.0000   0.2842
  18.300   0.7743   0.22722   0.22294  -0.0436  0.0023  0.1000  -2.9556   0.0000   0.2851
  18.400   0.7777   0.22910   0.22483  -0.0445  0.0022  0.1000  -2.9375   0.0000   0.2860
  18.500   0.7812   0.23096   0.22669  -0.0455  0.0022  0.1000  -2.9223   0.0000   0.2868
  18.600   0.7847   0.23282   0.22855  -0.0464  0.0021  0.1000  -2.9086   0.0000   0.2877
  18.700   0.7883   0.23466   0.23039  -0.0474  0.0021  0.1000  -2.8961   0.0000   0.2885
  18.800   0.7919   0.23650   0.23224  -0.0484  0.0020  0.1000  -2.8866   0.0000   0.2893
  18.900   0.7955   0.23830   0.23405  -0.0493  0.0020  0.1000  -2.8811   0.0000   0.2901
  19.000   0.7992   0.24008   0.23583  -0.0503  0.0019  0.1000  -2.8802   0.0000   0.2908
  19.100   0.8029   0.24183   0.23759  -0.0512  0.0019  0.1000  -2.8834   0.0000   0.2915
  19.200   0.8066   0.24357   0.23932  -0.0522  0.0018  0.1000  -2.8902   0.0000   0.2923
  19.300   0.8104   0.24528   0.24104  -0.0531  0.0018  0.1000  -2.8992   0.0000   0.2930
  19.400   0.8142   0.24700   0.24276  -0.0540  0.0017  0.1000  -2.9089   0.0000   0.2937
  19.500   0.8180   0.24871   0.24448  -0.0550  0.0017  0.1000  -2.9186   0.0000   0.2944
  19.600   0.8217   0.25056   0.24633  -0.0559  0.0017  0.1000  -2.9068   0.0000   0.2951
  19.700   0.8253   0.25248   0.24825  -0.0569  0.0017  0.1000  -2.8834   0.0000   0.2958
  19.800   0.8289   0.25437   0.25015  -0.0579  0.0016  0.1000  -2.8629   0.0000   0.2966
  19.900   0.8326   0.25623   0.25202  -0.0589  0.0016  0.1000  -2.8447   0.0000   0.2973
  20.000   0.8363   0.25812   0.25391  -0.0598  0.0016  0.1000  -2.8284   0.0000   0.2980


