xflr5 v6.11

 Calculated polar for: NACA 63012 AIRFOIL

 1 1 Reynolds number fixed          Mach number fixed         

 xtrf =   0.050 (top)        0.100 (bottom)
 Mach =   0.050     Re =     0.100 e 6     Ncrit =   4.000

  alpha     CL        CD       CDp       Cm    Top Xtr Bot Xtr   Cpmin    Chinge    XCp    
 ------- -------- --------- --------- -------- ------- ------- -------- --------- ---------
  -2.000  -0.2075   0.01859   0.00383  -0.0025  0.0500  0.1000  -0.6118   0.0000   0.2338
  -1.900  -0.1972   0.01857   0.00378  -0.0024  0.0500  0.1000  -0.5826   0.0000   0.2339
  -1.800  -0.1870   0.01855   0.00373  -0.0022  0.0500  0.1000  -0.5545   0.0000   0.2340
  -1.700  -0.1767   0.01853   0.00369  -0.0021  0.0500  0.1000  -0.5266   0.0000   0.2341
  -1.600  -0.1664   0.01851   0.00365  -0.0019  0.0500  0.1000  -0.5022   0.0000   0.2342
  -1.500  -0.1560   0.01850   0.00361  -0.0018  0.0500  0.1000  -0.4815   0.0000   0.2343
  -1.400  -0.1457   0.01848   0.00357  -0.0017  0.0500  0.1000  -0.4661   0.0000   0.2344
  -1.300  -0.1354   0.01847   0.00353  -0.0015  0.0500  0.1000  -0.4546   0.0000   0.2345
  -1.200  -0.1251   0.01845   0.00350  -0.0014  0.0500  0.1000  -0.4435   0.0000   0.2347
  -1.100  -0.1148   0.01844   0.00347  -0.0013  0.0500  0.1000  -0.4326   0.0000   0.2348
  -1.000  -0.1045   0.01843   0.00344  -0.0012  0.0500  0.1000  -0.4215   0.0000   0.2350
  -0.900  -0.0941   0.01843   0.00342  -0.0010  0.0500  0.1000  -0.4105   0.0000   0.2352
  -0.800  -0.0838   0.01842   0.00340  -0.0009  0.0500  0.1000  -0.4025   0.0000   0.2354
  -0.700  -0.0735   0.01841   0.00338  -0.0008  0.0500  0.1000  -0.3962   0.0000   0.2357
  -0.600  -0.0632   0.01841   0.00337  -0.0006  0.0500  0.1000  -0.3899   0.0000   0.2360
  -0.500  -0.0528   0.01841   0.00335  -0.0005  0.0500  0.1000  -0.3838   0.0000   0.2365
  -0.400  -0.0425   0.01841   0.00334  -0.0004  0.0500  0.1000  -0.3777   0.0000   0.2373
  -0.300  -0.0322   0.01841   0.00334  -0.0002  0.0500  0.1000  -0.3715   0.0000   0.2384
  -0.200  -0.0219   0.01841   0.00333  -0.0001  0.0500  0.1000  -0.3655   0.0000   0.2408
  -0.100  -0.0115   0.01841   0.00333   0.0000  0.0500  0.1000  -0.3595   0.0000   0.2472
   0.000  -0.0012   0.01841   0.00333   0.0001  0.0500  0.1000  -0.3535   0.0000   0.3653
   0.100   0.0091   0.01842   0.00333   0.0003  0.0500  0.1000  -0.3593   0.0000   0.2162
   0.200   0.0195   0.01843   0.00334   0.0004  0.0500  0.1000  -0.3653   0.0000   0.2254
   0.300   0.0298   0.01843   0.00334   0.0005  0.0500  0.1000  -0.3715   0.0000   0.2282
   0.400   0.0401   0.01844   0.00336   0.0007  0.0500  0.1000  -0.3776   0.0000   0.2296
   0.500   0.0504   0.01846   0.00337   0.0008  0.0500  0.1000  -0.3837   0.0000   0.2303
   0.600   0.0607   0.01847   0.00339   0.0009  0.0500  0.1000  -0.3900   0.0000   0.2308
   0.700   0.0710   0.01848   0.00340   0.0011  0.0500  0.1000  -0.3963   0.0000   0.2312
   0.800   0.0813   0.01850   0.00343   0.0012  0.0500  0.1000  -0.4026   0.0000   0.2314
   0.900   0.0916   0.01851   0.00345   0.0013  0.0500  0.1000  -0.4090   0.0000   0.2316
   1.000   0.1019   0.01853   0.00348   0.0014  0.0500  0.1000  -0.4155   0.0000   0.2318
   1.100   0.1122   0.01855   0.00351   0.0016  0.0500  0.1000  -0.4225   0.0000   0.2319
   1.200   0.1225   0.01857   0.00354   0.0017  0.0500  0.1000  -0.4359   0.0000   0.2319
   1.300   0.1328   0.01860   0.00357   0.0019  0.0500  0.1000  -0.4504   0.0000   0.2320
   1.400   0.1431   0.01862   0.00361   0.0020  0.0500  0.1000  -0.4650   0.0000   0.2320
   1.500   0.1534   0.01865   0.00365   0.0021  0.0500  0.1000  -0.4803   0.0000   0.2321
   1.600   0.1636   0.01867   0.00370   0.0023  0.0500  0.1000  -0.4991   0.0000   0.2321
   1.700   0.1739   0.01870   0.00374   0.0024  0.0500  0.1000  -0.5222   0.0000   0.2321
   1.800   0.1841   0.01873   0.00379   0.0025  0.0500  0.1000  -0.5500   0.0000   0.2320
   1.900   0.1944   0.01876   0.00385   0.0027  0.0500  0.1000  -0.5780   0.0000   0.2320
   2.000   0.2046   0.01880   0.00390   0.0028  0.0500  0.1000  -0.6068   0.0000   0.2320
   2.100   0.2148   0.01883   0.00396   0.0030  0.0500  0.1000  -0.6370   0.0000   0.2320
   2.200   0.2251   0.01887   0.00402   0.0031  0.0500  0.1000  -0.6675   0.0000   0.2319
   2.300   0.2353   0.01891   0.00408   0.0033  0.0500  0.1000  -0.6994   0.0000   0.2319
   2.400   0.2455   0.01895   0.00415   0.0034  0.0500  0.1000  -0.7429   0.0000   0.2318
   2.500   0.2557   0.01899   0.00422   0.0035  0.0500  0.1000  -0.7870   0.0000   0.2318
   2.600   0.2658   0.01903   0.00429   0.0037  0.0500  0.1000  -0.8317   0.0000   0.2317
   2.700   0.2760   0.01908   0.00437   0.0039  0.0500  0.1000  -0.8789   0.0000   0.2316
   2.800   0.2861   0.01913   0.00445   0.0040  0.0500  0.1000  -0.9269   0.0000   0.2315
   2.900   0.2963   0.01918   0.00453   0.0042  0.0500  0.1000  -0.9755   0.0000   0.2315
   3.000   0.3064   0.01923   0.00461   0.0043  0.0500  0.1000  -1.0246   0.0000   0.2314
   3.100   0.3165   0.01928   0.00470   0.0045  0.0500  0.1000  -1.0742   0.0000   0.2313
   3.200   0.3266   0.01934   0.00480   0.0046  0.0500  0.1000  -1.1242   0.0000   0.2312
   3.300   0.3367   0.01939   0.00489   0.0048  0.0500  0.1000  -1.1748   0.0000   0.2311
   3.400   0.3468   0.01945   0.00499   0.0050  0.0500  0.1000  -1.2258   0.0000   0.2310
   3.500   0.3568   0.01952   0.00509   0.0051  0.0500  0.1000  -1.2773   0.0000   0.2309
   3.600   0.3668   0.01958   0.00520   0.0053  0.0500  0.1000  -1.3292   0.0000   0.2307
   3.700   0.3769   0.01965   0.00531   0.0055  0.0500  0.1000  -1.3816   0.0000   0.2306
   3.800   0.3868   0.01972   0.00542   0.0057  0.0500  0.1000  -1.4344   0.0000   0.2305
   3.900   0.3968   0.01979   0.00554   0.0058  0.0500  0.1000  -1.4876   0.0000   0.2304
   4.000   0.4068   0.01986   0.00566   0.0060  0.0500  0.1000  -1.5412   0.0000   0.2302
   4.100   0.4167   0.01994   0.00579   0.0062  0.0500  0.1000  -1.5961   0.0000   0.2301
   4.200   0.4266   0.02002   0.00592   0.0064  0.0500  0.1000  -1.6535   0.0000   0.2299
   4.300   0.4365   0.02010   0.00605   0.0066  0.0500  0.1000  -1.7113   0.0000   0.2298
   4.400   0.4464   0.02018   0.00619   0.0068  0.0500  0.1000  -1.7695   0.0000   0.2296
   4.500   0.4562   0.02027   0.00633   0.0070  0.0500  0.1000  -1.8280   0.0000   0.2295
   4.600   0.4660   0.02036   0.00648   0.0072  0.0500  0.1000  -1.8869   0.0000   0.2293
   4.700   0.4758   0.02046   0.00663   0.0074  0.0500  0.1000  -1.9461   0.0000   0.2291
   4.800   0.4855   0.02056   0.00679   0.0076  0.0500  0.1000  -2.0055   0.0000   0.2289
   4.900   0.4953   0.02066   0.00695   0.0078  0.0500  0.1000  -2.0651   0.0000   0.2288
   5.000   0.5049   0.02077   0.00712   0.0080  0.0500  0.1000  -2.1250   0.0000   0.2286
   5.100   0.5146   0.02088   0.00730   0.0082  0.0500  0.1000  -2.1849   0.0000   0.2284
   5.200   0.5242   0.02100   0.00748   0.0085  0.0500  0.1000  -2.2449   0.0000   0.2281
   5.300   0.5338   0.02112   0.00767   0.0087  0.0500  0.1000  -2.3049   0.0000   0.2279
   5.400   0.5433   0.02125   0.00786   0.0089  0.0500  0.1000  -2.3648   0.0000   0.2277
   5.500   0.5527   0.02138   0.00806   0.0092  0.0500  0.1000  -2.4244   0.0000   0.2274
   5.600   0.5621   0.02152   0.00828   0.0095  0.0500  0.1000  -2.4850   0.0000   0.2272
   5.700   0.5714   0.02167   0.00851   0.0097  0.0500  0.1000  -2.5476   0.0000   0.2269
   5.800   0.5805   0.02184   0.00874   0.0101  0.0500  0.1000  -2.6095   0.0000   0.2265
   5.900   0.5895   0.02201   0.00899   0.0104  0.0500  0.1000  -2.6702   0.0000   0.2261
   6.000   0.5983   0.02220   0.00926   0.0108  0.0500  0.1000  -2.7294   0.0000   0.2257
   6.100   0.6069   0.02241   0.00955   0.0112  0.0500  0.1000  -2.7870   0.0000   0.2252
   6.200   0.6153   0.02265   0.00986   0.0116  0.0500  0.1000  -2.8424   0.0000   0.2247
   6.300   0.6235   0.02291   0.01020   0.0121  0.0500  0.1000  -2.8952   0.0000   0.2241
   6.400   0.6313   0.02321   0.01057   0.0126  0.0500  0.1000  -2.9450   0.0000   0.2234
   6.500   0.6387   0.02353   0.01096   0.0132  0.0500  0.1000  -2.9914   0.0000   0.2227
   6.600   0.6460   0.02387   0.01136   0.0138  0.0494  0.1000  -3.0429   0.0000   0.2219
   6.700   0.6535   0.02419   0.01170   0.0143  0.0475  0.1000  -3.1034   0.0000   0.2213
   6.800   0.6609   0.02452   0.01206   0.0148  0.0458  0.1000  -3.1610   0.0000   0.2207
   6.900   0.6684   0.02483   0.01243   0.0153  0.0441  0.1000  -3.2182   0.0000   0.2201
   7.000   0.6757   0.02516   0.01279   0.0158  0.0426  0.1000  -3.2779   0.0000   0.2195
   7.100   0.6828   0.02551   0.01315   0.0163  0.0414  0.1000  -3.3391   0.0000   0.2189
   7.200   0.6901   0.02586   0.01355   0.0168  0.0402  0.1000  -3.3939   0.0000   0.2183
   7.300   0.6974   0.02621   0.01397   0.0174  0.0390  0.1000  -3.4497   0.0000   0.2177
   7.400   0.7047   0.02657   0.01437   0.0179  0.0379  0.1000  -3.5121   0.0000   0.2171
   7.500   0.7118   0.02693   0.01476   0.0184  0.0370  0.1000  -3.5773   0.0000   0.2166
   7.600   0.7187   0.02732   0.01515   0.0189  0.0363  0.1000  -3.6433   0.0000   0.2161
   7.700   0.7260   0.02773   0.01562   0.0194  0.0354  0.1000  -3.7016   0.0000   0.2155
   7.800   0.7334   0.02815   0.01611   0.0199  0.0347  0.1000  -3.7596   0.0000   0.2150
   7.900   0.7407   0.02858   0.01659   0.0204  0.0340  0.1000  -3.8196   0.0000   0.2145
   8.000   0.7481   0.02900   0.01707   0.0208  0.0333  0.1000  -3.8821   0.0000   0.2141
   8.100   0.7555   0.02942   0.01752   0.0213  0.0326  0.1000  -3.9474   0.0000   0.2137
   8.200   0.7627   0.02985   0.01797   0.0217  0.0321  0.1000  -4.0188   0.0000   0.2133
   8.300   0.7697   0.03029   0.01841   0.0221  0.0316  0.1000  -4.0922   0.0000   0.2129
   8.400   0.7776   0.03080   0.01901   0.0225  0.0309  0.1000  -4.1537   0.0000   0.2126
   8.500   0.7854   0.03132   0.01963   0.0229  0.0303  0.1000  -4.2160   0.0000   0.2122
   8.600   0.7932   0.03186   0.02025   0.0233  0.0298  0.1000  -4.2794   0.0000   0.2119
   8.700   0.8009   0.03242   0.02088   0.0237  0.0294  0.1000  -4.3432   0.0000   0.2117
   8.800   0.8086   0.03299   0.02151   0.0241  0.0290  0.1000  -4.4079   0.0000   0.2114
   8.900   0.8161   0.03354   0.02213   0.0244  0.0286  0.1000  -4.4743   0.0000   0.2111
   9.000   0.8235   0.03409   0.02273   0.0248  0.0282  0.1000  -4.5451   0.0000   0.2108
   9.100   0.8306   0.03463   0.02331   0.0252  0.0279  0.1000  -4.6205   0.0000   0.2105
   9.200   0.8376   0.03517   0.02388   0.0255  0.0276  0.1000  -4.6981   0.0000   0.2103
   9.300   0.8447   0.03585   0.02465   0.0259  0.0272  0.1000  -4.7615   0.0000   0.2099
   9.400   0.8516   0.03662   0.02559   0.0264  0.0267  0.1000  -4.8133   0.0000   0.2096
   9.500   0.8581   0.03739   0.02650   0.0269  0.0263  0.1000  -4.8665   0.0000   0.2092
   9.600   0.8642   0.03816   0.02739   0.0274  0.0259  0.1000  -4.9206   0.0000   0.2087
   9.700   0.8700   0.03894   0.02828   0.0279  0.0256  0.1000  -4.9743   0.0000   0.2083
   9.800   0.8755   0.03974   0.02920   0.0284  0.0254  0.1000  -5.0261   0.0000   0.2078
   9.900   0.8806   0.04056   0.03012   0.0289  0.0252  0.1000  -5.0763   0.0000   0.2072
  10.000   0.8853   0.04137   0.03104   0.0295  0.0249  0.1000  -5.1271   0.0000   0.2067
  10.100   0.8896   0.04216   0.03194   0.0301  0.0247  0.1000  -5.1819   0.0000   0.2061
  10.200   0.8935   0.04294   0.03281   0.0307  0.0245  0.1000  -5.2372   0.0000   0.2054
  10.300   0.8971   0.04370   0.03365   0.0313  0.0243  0.1000  -5.2941   0.0000   0.2048
  10.400   0.9005   0.04443   0.03446   0.0319  0.0241  0.1000  -5.3530   0.0000   0.2041
  10.500   0.9038   0.04515   0.03524   0.0324  0.0239  0.1000  -5.4141   0.0000   0.2035
  10.600   0.9054   0.04601   0.03619   0.0332  0.0238  0.1000  -5.4547   0.0000   0.2026
  10.700   0.9033   0.04713   0.03749   0.0344  0.0236  0.1000  -5.4535   0.0000   0.2011
  10.800   0.9007   0.04826   0.03878   0.0356  0.0234  0.1000  -5.4514   0.0000   0.1995
  10.900   0.8977   0.04943   0.04011   0.0366  0.0232  0.1000  -5.4487   0.0000   0.1981
  11.000   0.8944   0.05064   0.04147   0.0376  0.0231  0.1000  -5.4448   0.0000   0.1967
  11.100   0.8907   0.05188   0.04284   0.0385  0.0230  0.1000  -5.4393   0.0000   0.1955
  11.200   0.8865   0.05316   0.04425   0.0392  0.0229  0.1000  -5.4318   0.0000   0.1943
  11.300   0.8819   0.05448   0.04570   0.0398  0.0228  0.1000  -5.4215   0.0000   0.1932
  11.400   0.8769   0.05586   0.04719   0.0403  0.0227  0.1000  -5.4082   0.0000   0.1922
  11.500   0.8713   0.05731   0.04875   0.0407  0.0226  0.1000  -5.3912   0.0000   0.1913
  11.600   0.8653   0.05884   0.05039   0.0409  0.0226  0.1000  -5.3704   0.0000   0.1906
  11.700   0.8588   0.06045   0.05211   0.0410  0.0226  0.1000  -5.3455   0.0000   0.1900
  11.800   0.8519   0.06217   0.05392   0.0408  0.0225  0.1000  -5.3162   0.0000   0.1896
  11.900   0.8445   0.06399   0.05584   0.0405  0.0225  0.1000  -5.2825   0.0000   0.1893
  12.000   0.8366   0.06593   0.05787   0.0400  0.0225  0.1000  -5.2439   0.0000   0.1893
  12.100   0.8283   0.06801   0.06004   0.0393  0.0226  0.1000  -5.2001   0.0000   0.1895
  12.200   0.8195   0.07025   0.06236   0.0384  0.0226  0.1000  -5.1506   0.0000   0.1899
  12.300   0.8103   0.07266   0.06485   0.0372  0.0226  0.1000  -5.0947   0.0000   0.1906
  12.400   0.8007   0.07528   0.06754   0.0358  0.0227  0.1000  -5.0317   0.0000   0.1917
  12.500   0.7905   0.07812   0.07045   0.0341  0.0227  0.1000  -4.9605   0.0000   0.1930
  12.600   0.7799   0.08122   0.07362   0.0321  0.0228  0.1000  -4.8796   0.0000   0.1948
  12.700   0.7687   0.08464   0.07710   0.0298  0.0229  0.1000  -4.7865   0.0000   0.1970
  12.800   0.7568   0.08848   0.08099   0.0271  0.0230  0.1000  -4.6764   0.0000   0.1997
  12.900   0.7443   0.09276   0.08530   0.0242  0.0231  0.1000  -4.5482   0.0000   0.2030
  13.000   0.7317   0.09748   0.09005   0.0209  0.0232  0.1000  -4.4007   0.0000   0.2068
  13.100   0.7193   0.10256   0.09514   0.0176  0.0234  0.1000  -4.2355   0.0000   0.2109
  13.200   0.7081   0.10776   0.10034   0.0144  0.0235  0.1000  -4.0605   0.0000   0.2150
  13.300   0.6985   0.11273   0.10530   0.0116  0.0236  0.1000  -3.8892   0.0000   0.2187
  13.400   0.6910   0.11718   0.10973   0.0093  0.0237  0.1000  -3.7372   0.0000   0.2218
  13.500   0.6857   0.12088   0.11341   0.0075  0.0237  0.1000  -3.6211   0.0000   0.2244
  13.600   0.6817   0.12414   0.11666   0.0058  0.0238  0.1000  -3.5272   0.0000   0.2266
  13.700   0.6786   0.12713   0.11963   0.0044  0.0238  0.1000  -3.4465   0.0000   0.2287
  13.800   0.6761   0.12995   0.12244   0.0029  0.0238  0.1000  -3.3727   0.0000   0.2307
  13.900   0.6740   0.13268   0.12515   0.0016  0.0238  0.1000  -3.3033   0.0000   0.2327
  14.000   0.6723   0.13532   0.12778   0.0003  0.0238  0.1000  -3.2368   0.0000   0.2346
  14.100   0.6708   0.13792   0.13036  -0.0011  0.0238  0.1000  -3.1728   0.0000   0.2365
  14.200   0.6695   0.14048   0.13291  -0.0024  0.0237  0.1000  -3.1100   0.0000   0.2384
  14.300   0.6684   0.14299   0.13540  -0.0037  0.0237  0.1000  -3.0495   0.0000   0.2402
  14.400   0.6676   0.14541   0.13782  -0.0049  0.0236  0.1000  -2.9921   0.0000   0.2420
  14.500   0.6672   0.14775   0.14015  -0.0061  0.0235  0.1000  -2.9390   0.0000   0.2438
  14.600   0.6671   0.15001   0.14239  -0.0073  0.0234  0.1000  -2.8904   0.0000   0.2455
  14.700   0.6672   0.15217   0.14455  -0.0085  0.0233  0.1000  -2.8463   0.0000   0.2471
  14.800   0.6677   0.15424   0.14661  -0.0095  0.0232  0.1000  -2.8078   0.0000   0.2486
  14.900   0.6685   0.15621   0.14858  -0.0106  0.0232  0.1000  -2.7745   0.0000   0.2501
  15.000   0.6696   0.15810   0.15046  -0.0116  0.0232  0.1000  -2.7459   0.0000   0.2514
  15.100   0.6709   0.15992   0.15229  -0.0125  0.0232  0.1000  -2.7210   0.0000   0.2527
  15.200   0.6723   0.16171   0.15408  -0.0134  0.0232  0.1000  -2.6974   0.0000   0.2539
  15.300   0.6738   0.16350   0.15586  -0.0144  0.0232  0.1000  -2.6734   0.0000   0.2552
  15.400   0.6753   0.16528   0.15764  -0.0153  0.0232  0.1000  -2.6484   0.0000   0.2564
  15.500   0.6768   0.16706   0.15942  -0.0163  0.0232  0.1000  -2.6229   0.0000   0.2577
  15.600   0.6784   0.16883   0.16118  -0.0172  0.0231  0.1000  -2.5969   0.0000   0.2589
  15.700   0.6800   0.17058   0.16294  -0.0182  0.0231  0.1000  -2.5709   0.0000   0.2602
  15.800   0.6816   0.17230   0.16465  -0.0192  0.0230  0.1000  -2.5456   0.0000   0.2615
  15.900   0.6832   0.17398   0.16634  -0.0201  0.0229  0.1000  -2.5230   0.0000   0.2627
  16.000   0.6850   0.17563   0.16799  -0.0211  0.0228  0.1000  -2.5036   0.0000   0.2639
  16.100   0.6869   0.17724   0.16960  -0.0220  0.0227  0.1000  -2.4859   0.0000   0.2651
  16.200   0.6889   0.17884   0.17120  -0.0229  0.0227  0.1000  -2.4695   0.0000   0.2662
  16.300   0.6910   0.18041   0.17277  -0.0238  0.0227  0.1000  -2.4542   0.0000   0.2672
  16.400   0.6933   0.18196   0.17432  -0.0247  0.0228  0.1000  -2.4402   0.0000   0.2683
  16.500   0.6956   0.18349   0.17585  -0.0255  0.0229  0.1000  -2.4274   0.0000   0.2693
  16.600   0.6980   0.18500   0.17736  -0.0264  0.0229  0.1000  -2.4152   0.0000   0.2702
  16.700   0.7005   0.18650   0.17887  -0.0272  0.0230  0.1000  -2.4030   0.0000   0.2712
  16.800   0.7029   0.18799   0.18036  -0.0281  0.0230  0.1000  -2.3903   0.0000   0.2722
  16.900   0.7053   0.18949   0.18186  -0.0290  0.0230  0.1000  -2.3769   0.0000   0.2732
  17.000   0.7077   0.19097   0.18335  -0.0298  0.0230  0.1000  -2.3631   0.0000   0.2741
  17.100   0.7102   0.19245   0.18483  -0.0307  0.0230  0.1000  -2.3490   0.0000   0.2751
  17.200   0.7126   0.19392   0.18630  -0.0316  0.0229  0.1000  -2.3351   0.0000   0.2761
  17.300   0.7152   0.19537   0.18775  -0.0325  0.0229  0.1000  -2.3220   0.0000   0.2770
  17.400   0.7178   0.19681   0.18919  -0.0334  0.0229  0.1000  -2.3097   0.0000   0.2779
  17.500   0.7205   0.19823   0.19061  -0.0342  0.0229  0.1000  -2.2990   0.0000   0.2788
  17.600   0.7234   0.19961   0.19200  -0.0350  0.0231  0.1000  -2.2914   0.0000   0.2796
  17.700   0.7265   0.20091   0.19331  -0.0357  0.0233  0.1000  -2.2921   0.0000   0.2802
  18.000   0.7339   0.20597   0.19838  -0.0386  0.0264  0.1000  -2.1862   0.0000   0.2833


