xflr5 v6.11

 Calculated polar for: NACA 63012 AIRFOIL

 1 1 Reynolds number fixed          Mach number fixed         

 xtrf =   0.050 (top)        0.100 (bottom)
 Mach =   0.150     Re =     0.300 e 6     Ncrit =   4.000

  alpha     CL        CD       CDp       Cm    Top Xtr Bot Xtr   Cpmin    Chinge    XCp    
 ------- -------- --------- --------- -------- ------- ------- -------- --------- ---------
  -2.000  -0.2153   0.01369   0.00247  -0.0017  0.0500  0.1000  -0.6314   0.0000   0.2381
  -1.900  -0.2046   0.01367   0.00244  -0.0016  0.0500  0.1000  -0.6004   0.0000   0.2382
  -1.800  -0.1939   0.01366   0.00241  -0.0015  0.0500  0.1000  -0.5705   0.0000   0.2384
  -1.700  -0.1833   0.01365   0.00238  -0.0014  0.0500  0.1000  -0.5418   0.0000   0.2385
  -1.600  -0.1726   0.01364   0.00235  -0.0013  0.0500  0.1000  -0.5133   0.0000   0.2386
  -1.500  -0.1619   0.01363   0.00233  -0.0012  0.0500  0.1000  -0.4910   0.0000   0.2387
  -1.400  -0.1512   0.01362   0.00230  -0.0011  0.0500  0.1000  -0.4753   0.0000   0.2389
  -1.300  -0.1405   0.01361   0.00228  -0.0010  0.0500  0.1000  -0.4625   0.0000   0.2390
  -1.200  -0.1299   0.01361   0.00226  -0.0009  0.0500  0.1000  -0.4498   0.0000   0.2392
  -1.100  -0.1192   0.01360   0.00224  -0.0008  0.0500  0.1000  -0.4371   0.0000   0.2394
  -1.000  -0.1085   0.01359   0.00223  -0.0007  0.0500  0.1000  -0.4250   0.0000   0.2396
  -0.900  -0.0978   0.01359   0.00221  -0.0006  0.0500  0.1000  -0.4152   0.0000   0.2399
  -0.800  -0.0871   0.01359   0.00220  -0.0005  0.0500  0.1000  -0.4085   0.0000   0.2402
  -0.700  -0.0764   0.01359   0.00219  -0.0004  0.0500  0.1000  -0.4021   0.0000   0.2406
  -0.600  -0.0657   0.01358   0.00218  -0.0003  0.0500  0.1000  -0.3956   0.0000   0.2411
  -0.500  -0.0550   0.01358   0.00217  -0.0002  0.0500  0.1000  -0.3891   0.0000   0.2418
  -0.400  -0.0443   0.01358   0.00217  -0.0002  0.0500  0.1000  -0.3828   0.0000   0.2428
  -0.300  -0.0336   0.01359   0.00216  -0.0001  0.0500  0.1000  -0.3764   0.0000   0.2445
  -0.200  -0.0229   0.01359   0.00216   0.0000  0.0500  0.1000  -0.3701   0.0000   0.2478
  -0.100  -0.0122   0.01359   0.00216   0.0001  0.0500  0.1000  -0.3638   0.0000   0.2567
   0.000  -0.0015   0.01360   0.00216   0.0002  0.0500  0.1000  -0.3575   0.0000   0.3904
   0.100   0.0092   0.01360   0.00216   0.0003  0.0500  0.1000  -0.3622   0.0000   0.2119
   0.200   0.0198   0.01361   0.00217   0.0004  0.0500  0.1000  -0.3685   0.0000   0.2257
   0.300   0.0305   0.01361   0.00217   0.0005  0.0500  0.1000  -0.3748   0.0000   0.2298
   0.400   0.0412   0.01362   0.00218   0.0006  0.0500  0.1000  -0.3811   0.0000   0.2318
   0.500   0.0519   0.01363   0.00219   0.0007  0.0500  0.1000  -0.3875   0.0000   0.2329
   0.600   0.0626   0.01364   0.00220   0.0008  0.0500  0.1000  -0.3940   0.0000   0.2337
   0.700   0.0733   0.01365   0.00222   0.0009  0.0500  0.1000  -0.4004   0.0000   0.2342
   0.800   0.0840   0.01366   0.00223   0.0010  0.0500  0.1000  -0.4070   0.0000   0.2346
   0.900   0.0946   0.01368   0.00225   0.0011  0.0500  0.1000  -0.4136   0.0000   0.2349
   1.000   0.1053   0.01369   0.00226   0.0012  0.0500  0.1000  -0.4203   0.0000   0.2351
   1.100   0.1160   0.01370   0.00229   0.0013  0.0500  0.1000  -0.4285   0.0000   0.2352
   1.200   0.1266   0.01372   0.00231   0.0014  0.0500  0.1000  -0.4375   0.0000   0.2354
   1.300   0.1373   0.01374   0.00233   0.0015  0.0500  0.1000  -0.4546   0.0000   0.2355
   1.400   0.1479   0.01375   0.00235   0.0016  0.0500  0.1000  -0.4719   0.0000   0.2355
   1.500   0.1586   0.01377   0.00238   0.0017  0.0500  0.1000  -0.4894   0.0000   0.2356
   1.600   0.1692   0.01379   0.00241   0.0018  0.0500  0.1000  -0.5096   0.0000   0.2356
   1.700   0.1799   0.01381   0.00244   0.0019  0.0500  0.1000  -0.5366   0.0000   0.2357
   1.800   0.1905   0.01383   0.00247   0.0020  0.0500  0.1000  -0.5653   0.0000   0.2357
   1.900   0.2011   0.01386   0.00251   0.0021  0.0500  0.1000  -0.5946   0.0000   0.2357
   2.000   0.2117   0.01388   0.00254   0.0022  0.0500  0.1000  -0.6256   0.0000   0.2356
   2.100   0.2223   0.01391   0.00258   0.0023  0.0500  0.1000  -0.6568   0.0000   0.2356
   2.200   0.2329   0.01393   0.00262   0.0024  0.0500  0.1000  -0.6883   0.0000   0.2356
   2.300   0.2435   0.01396   0.00266   0.0025  0.0500  0.1000  -0.7344   0.0000   0.2356
   2.400   0.2541   0.01399   0.00271   0.0026  0.0500  0.1000  -0.7828   0.0000   0.2355
   2.500   0.2647   0.01402   0.00275   0.0027  0.0500  0.1000  -0.8317   0.0000   0.2355
   2.600   0.2753   0.01405   0.00280   0.0028  0.0500  0.1000  -0.8813   0.0000   0.2354
   2.700   0.2859   0.01408   0.00285   0.0030  0.0500  0.1000  -0.9315   0.0000   0.2354
   2.800   0.2964   0.01411   0.00290   0.0031  0.0500  0.1000  -0.9823   0.0000   0.2353
   2.900   0.3070   0.01415   0.00295   0.0032  0.0500  0.1000  -1.0337   0.0000   0.2352
   3.000   0.3175   0.01418   0.00301   0.0033  0.0500  0.1000  -1.0857   0.0000   0.2351
   3.100   0.3280   0.01422   0.00307   0.0034  0.0500  0.1000  -1.1382   0.0000   0.2351
   3.200   0.3385   0.01426   0.00313   0.0036  0.0500  0.1000  -1.1914   0.0000   0.2350
   3.300   0.3490   0.01429   0.00319   0.0037  0.0500  0.1000  -1.2451   0.0000   0.2349
   3.400   0.3595   0.01434   0.00325   0.0038  0.0500  0.1000  -1.2993   0.0000   0.2348
   3.500   0.3700   0.01438   0.00332   0.0040  0.0500  0.1000  -1.3542   0.0000   0.2347
   3.600   0.3805   0.01442   0.00339   0.0041  0.0500  0.1000  -1.4095   0.0000   0.2346
   3.700   0.3909   0.01447   0.00346   0.0042  0.0500  0.1000  -1.4654   0.0000   0.2344
   3.800   0.4013   0.01451   0.00354   0.0044  0.0500  0.1000  -1.5229   0.0000   0.2343
   3.900   0.4118   0.01456   0.00361   0.0045  0.0500  0.1000  -1.5831   0.0000   0.2342
   4.000   0.4222   0.01461   0.00369   0.0047  0.0500  0.1000  -1.6439   0.0000   0.2341
   4.100   0.4325   0.01466   0.00378   0.0048  0.0500  0.1000  -1.7052   0.0000   0.2339
   4.200   0.4429   0.01472   0.00386   0.0050  0.0500  0.1000  -1.7670   0.0000   0.2338
   4.300   0.4533   0.01477   0.00395   0.0051  0.0500  0.1000  -1.8293   0.0000   0.2336
   4.400   0.4636   0.01483   0.00404   0.0053  0.0500  0.1000  -1.8921   0.0000   0.2335
   4.500   0.4739   0.01489   0.00414   0.0055  0.0500  0.1000  -1.9553   0.0000   0.2333
   4.600   0.4842   0.01495   0.00423   0.0056  0.0500  0.1000  -2.0190   0.0000   0.2331
   4.700   0.4944   0.01501   0.00433   0.0058  0.0500  0.1000  -2.0829   0.0000   0.2330
   4.800   0.5047   0.01508   0.00444   0.0060  0.0500  0.1000  -2.1471   0.0000   0.2328
   4.900   0.5149   0.01515   0.00455   0.0062  0.0500  0.1000  -2.2115   0.0000   0.2326
   5.000   0.5250   0.01522   0.00467   0.0064  0.0500  0.1000  -2.2760   0.0000   0.2324
   5.100   0.5352   0.01530   0.00479   0.0066  0.0500  0.1000  -2.3404   0.0000   0.2321
   5.200   0.5452   0.01539   0.00492   0.0068  0.0500  0.1000  -2.4045   0.0000   0.2319
   5.300   0.5547   0.01553   0.00507   0.0071  0.0463  0.1000  -2.4682   0.0000   0.2315
   5.400   0.5642   0.01566   0.00521   0.0074  0.0429  0.1000  -2.5324   0.0000   0.2312
   5.500   0.5736   0.01581   0.00536   0.0077  0.0400  0.1000  -2.5994   0.0000   0.2308
   5.600   0.5830   0.01595   0.00552   0.0079  0.0374  0.1000  -2.6684   0.0000   0.2304
   5.700   0.5924   0.01609   0.00567   0.0082  0.0353  0.1000  -2.7376   0.0000   0.2301
   5.800   0.6018   0.01623   0.00583   0.0085  0.0333  0.1000  -2.8071   0.0000   0.2297
   5.900   0.6110   0.01639   0.00600   0.0089  0.0317  0.1000  -2.8767   0.0000   0.2293
   6.000   0.6204   0.01654   0.00618   0.0092  0.0302  0.1000  -2.9464   0.0000   0.2290
   6.100   0.6297   0.01669   0.00635   0.0095  0.0288  0.1000  -3.0168   0.0000   0.2286
   6.200   0.6387   0.01686   0.00653   0.0098  0.0276  0.1000  -3.0876   0.0000   0.2282
   6.300   0.6479   0.01701   0.00672   0.0102  0.0266  0.1000  -3.1577   0.0000   0.2278
   6.400   0.6571   0.01717   0.00691   0.0105  0.0256  0.1000  -3.2282   0.0000   0.2274
   6.500   0.6661   0.01734   0.00711   0.0108  0.0247  0.1000  -3.3000   0.0000   0.2271
   6.600   0.6749   0.01753   0.00731   0.0112  0.0240  0.1000  -3.3761   0.0000   0.2266
   6.700   0.6838   0.01771   0.00753   0.0116  0.0234  0.1000  -3.4508   0.0000   0.2262
   6.800   0.6927   0.01789   0.00775   0.0120  0.0228  0.1000  -3.5253   0.0000   0.2258
   6.900   0.7014   0.01808   0.00797   0.0124  0.0222  0.1000  -3.6006   0.0000   0.2254
   7.000   0.7101   0.01827   0.00819   0.0128  0.0217  0.1000  -3.6771   0.0000   0.2249
   7.100   0.7188   0.01847   0.00842   0.0132  0.0212  0.1000  -3.7547   0.0000   0.2245
   7.200   0.7272   0.01869   0.00865   0.0136  0.0208  0.1000  -3.8329   0.0000   0.2240
   7.300   0.7356   0.01890   0.00890   0.0140  0.0204  0.1000  -3.9086   0.0000   0.2236
   7.400   0.7440   0.01911   0.00916   0.0145  0.0200  0.1000  -3.9856   0.0000   0.2231
   7.500   0.7523   0.01933   0.00941   0.0149  0.0195  0.1000  -4.0667   0.0000   0.2226
   7.600   0.7605   0.01955   0.00967   0.0153  0.0191  0.1000  -4.1488   0.0000   0.2221
   7.700   0.7687   0.01978   0.00993   0.0158  0.0188  0.1000  -4.2318   0.0000   0.2217
   7.800   0.7768   0.02001   0.01020   0.0163  0.0185  0.1000  -4.3152   0.0000   0.2212
   7.900   0.7847   0.02025   0.01047   0.0167  0.0183  0.1000  -4.3985   0.0000   0.2207
   8.000   0.7924   0.02051   0.01075   0.0173  0.0180  0.1000  -4.4816   0.0000   0.2201
   8.100   0.7999   0.02078   0.01105   0.0178  0.0178  0.1000  -4.5623   0.0000   0.2196
   8.200   0.8074   0.02106   0.01138   0.0183  0.0176  0.1000  -4.6398   0.0000   0.2190
   8.300   0.8149   0.02134   0.01172   0.0189  0.0174  0.1000  -4.7215   0.0000   0.2184
   8.400   0.8222   0.02163   0.01205   0.0194  0.0172  0.1000  -4.8050   0.0000   0.2178
   8.500   0.8296   0.02192   0.01239   0.0200  0.0169  0.1000  -4.8894   0.0000   0.2173
   8.600   0.8368   0.02221   0.01272   0.0206  0.0167  0.1000  -4.9750   0.0000   0.2167
   8.700   0.8441   0.02250   0.01305   0.0211  0.0165  0.1000  -5.0619   0.0000   0.2161
   8.800   0.8512   0.02279   0.01338   0.0217  0.0162  0.1000  -5.1500   0.0000   0.2156
   8.900   0.8583   0.02308   0.01371   0.0222  0.0160  0.1000  -5.2392   0.0000   0.2150
   9.000   0.8653   0.02338   0.01403   0.0228  0.0158  0.1000  -5.3292   0.0000   0.2145
   9.100   0.8720   0.02369   0.01437   0.0234  0.0157  0.1000  -5.4191   0.0000   0.2139
   9.200   0.8785   0.02401   0.01472   0.0240  0.0155  0.1000  -5.5079   0.0000   0.2133
   9.300   0.8848   0.02437   0.01513   0.0246  0.0154  0.1000  -5.5939   0.0000   0.2126
   9.400   0.8911   0.02475   0.01558   0.0253  0.0152  0.1000  -5.6768   0.0000   0.2119
   9.500   0.8971   0.02515   0.01603   0.0260  0.0151  0.1000  -5.7590   0.0000   0.2112
   9.600   0.9029   0.02554   0.01649   0.0267  0.0149  0.1000  -5.8402   0.0000   0.2105
   9.700   0.9083   0.02592   0.01694   0.0275  0.0148  0.1000  -5.9209   0.0000   0.2097
   9.800   0.9135   0.02631   0.01738   0.0283  0.0146  0.1000  -6.0014   0.0000   0.2088
   9.900   0.9186   0.02670   0.01783   0.0291  0.0145  0.1000  -6.0824   0.0000   0.2080
  10.000   0.9235   0.02708   0.01827   0.0299  0.0143  0.1000  -6.1645   0.0000   0.2072
  10.100   0.9286   0.02748   0.01872   0.0307  0.0142  0.1000  -6.2483   0.0000   0.2064
  10.200   0.9336   0.02788   0.01917   0.0315  0.0140  0.1000  -6.3336   0.0000   0.2056
  10.300   0.9385   0.02828   0.01962   0.0322  0.0139  0.1000  -6.4201   0.0000   0.2049
  10.400   0.9433   0.02869   0.02008   0.0329  0.0138  0.1000  -6.5073   0.0000   0.2042
  10.500   0.9480   0.02910   0.02054   0.0336  0.0136  0.1000  -6.5977   0.0000   0.2035
  10.600   0.9525   0.02954   0.02101   0.0343  0.0135  0.1000  -6.6884   0.0000   0.2028
  10.700   0.9568   0.02999   0.02150   0.0350  0.0134  0.1000  -6.7778   0.0000   0.2021
  10.800   0.9608   0.03049   0.02204   0.0357  0.0134  0.1000  -6.8632   0.0000   0.2013
  10.900   0.9644   0.03112   0.02277   0.0365  0.0132  0.1000  -6.9305   0.0000   0.2006
  11.000   0.9677   0.03177   0.02353   0.0372  0.0131  0.1000  -6.9958   0.0000   0.1998
  11.100   0.9706   0.03245   0.02430   0.0379  0.0130  0.1000  -7.0592   0.0000   0.1990
  11.200   0.9733   0.03314   0.02509   0.0387  0.0129  0.1000  -7.1212   0.0000   0.1982
  11.300   0.9756   0.03385   0.02589   0.0394  0.0128  0.1000  -7.1818   0.0000   0.1975
  11.400   0.9776   0.03457   0.02671   0.0401  0.0127  0.1000  -7.2413   0.0000   0.1967
  11.500   0.9794   0.03530   0.02753   0.0407  0.0125  0.1000  -7.3003   0.0000   0.1959
  11.600   0.9809   0.03604   0.02835   0.0414  0.0124  0.1000  -7.3589   0.0000   0.1952
  11.700   0.9822   0.03679   0.02919   0.0420  0.0123  0.1000  -7.4173   0.0000   0.1945
  11.800   0.9832   0.03756   0.03003   0.0425  0.0122  0.1000  -7.4753   0.0000   0.1938
  11.900   0.9841   0.03834   0.03088   0.0430  0.0121  0.1000  -7.5329   0.0000   0.1932
  12.000   0.9848   0.03914   0.03175   0.0435  0.0120  0.1000  -7.5899   0.0000   0.1925
  12.100   0.9853   0.03996   0.03264   0.0439  0.0120  0.1000  -7.6460   0.0000   0.1920
  12.200   0.9856   0.04081   0.03356   0.0443  0.0119  0.1000  -7.7009   0.0000   0.1914
  12.300   0.9857   0.04169   0.03450   0.0446  0.0118  0.1000  -7.7543   0.0000   0.1909
  12.400   0.9855   0.04260   0.03548   0.0449  0.0118  0.1000  -7.8057   0.0000   0.1905
  12.500   0.9851   0.04356   0.03650   0.0451  0.0117  0.1000  -7.8574   0.0000   0.1901
  12.600   0.9844   0.04456   0.03756   0.0453  0.0117  0.1000  -7.9061   0.0000   0.1897
  12.700   0.9835   0.04561   0.03868   0.0454  0.0116  0.1000  -7.9513   0.0000   0.1894
  12.800   0.9822   0.04672   0.03985   0.0454  0.0116  0.1000  -7.9934   0.0000   0.1891
  12.900   0.9807   0.04787   0.04106   0.0454  0.0115  0.1000  -8.0330   0.0000   0.1888
  13.000   0.9790   0.04908   0.04232   0.0453  0.0115  0.1000  -8.0696   0.0000   0.1886
  13.100   0.9753   0.05057   0.04390   0.0451  0.0115  0.1000  -8.0767   0.0000   0.1885
  13.200   0.9695   0.05238   0.04582   0.0447  0.0114  0.1000  -8.0548   0.0000   0.1884
  13.300   0.9634   0.05427   0.04782   0.0442  0.0114  0.1000  -8.0283   0.0000   0.1884
  13.400   0.9570   0.05627   0.04993   0.0436  0.0113  0.1000  -7.9973   0.0000   0.1885
  13.500   0.9502   0.05837   0.05213   0.0428  0.0113  0.1000  -7.9617   0.0000   0.1888
  13.600   0.9430   0.06059   0.05444   0.0419  0.0113  0.1000  -7.9213   0.0000   0.1893
  13.700   0.9356   0.06292   0.05686   0.0408  0.0113  0.1000  -7.8761   0.0000   0.1899
  13.800   0.9279   0.06538   0.05941   0.0395  0.0113  0.1000  -7.8258   0.0000   0.1906
  13.900   0.9200   0.06798   0.06208   0.0381  0.0112  0.1000  -7.7701   0.0000   0.1916
  14.000   0.9117   0.07071   0.06490   0.0366  0.0112  0.1000  -7.7086   0.0000   0.1927
  14.100   0.9033   0.07359   0.06785   0.0348  0.0112  0.1000  -7.6409   0.0000   0.1941
  14.200   0.8946   0.07663   0.07097   0.0329  0.0113  0.1000  -7.5666   0.0000   0.1956
  14.300   0.8857   0.07987   0.07426   0.0309  0.0113  0.1000  -7.4850   0.0000   0.1974
  14.400   0.8767   0.08328   0.07774   0.0286  0.0113  0.1000  -7.3953   0.0000   0.1994
  14.500   0.8674   0.08688   0.08141   0.0263  0.0113  0.1000  -7.2966   0.0000   0.2016
  14.600   0.8580   0.09071   0.08528   0.0238  0.0113  0.1000  -7.1873   0.0000   0.2040
  14.700   0.8482   0.09475   0.08937   0.0212  0.0114  0.1000  -7.0656   0.0000   0.2066
  14.800   0.8382   0.09903   0.09369   0.0184  0.0114  0.1000  -6.9284   0.0000   0.2095
  14.900   0.8275   0.10356   0.09826   0.0156  0.0115  0.1000  -6.7711   0.0000   0.2125
  15.500   0.6818   0.15805   0.15263  -0.0115  0.0108  0.1000  -3.3168   0.0000   0.2499
  15.600   0.6821   0.16018   0.15476  -0.0126  0.0107  0.1000  -3.2625   0.0000   0.2514
  15.700   0.6828   0.16223   0.15681  -0.0136  0.0106  0.1000  -3.2141   0.0000   0.2528
  15.800   0.6837   0.16420   0.15877  -0.0146  0.0105  0.1000  -3.1716   0.0000   0.2541
  15.900   0.6849   0.16607   0.16064  -0.0156  0.0105  0.1000  -3.1360   0.0000   0.2554
  16.000   0.6863   0.16784   0.16241  -0.0165  0.0104  0.1000  -3.1088   0.0000   0.2566
  16.100   0.6881   0.16950   0.16407  -0.0174  0.0103  0.1000  -3.0910   0.0000   0.2577
  16.200   0.6901   0.17104   0.16561  -0.0183  0.0102  0.1000  -3.0867   0.0000   0.2587
  16.300   0.6924   0.17246   0.16704  -0.0191  0.0101  0.1000  -3.0928   0.0000   0.2597
  16.400   0.6950   0.17377   0.16835  -0.0198  0.0100  0.1000  -3.1095   0.0000   0.2605
  16.500   0.6978   0.17499   0.16958  -0.0206  0.0099  0.1000  -3.1344   0.0000   0.2613
  16.600   0.7008   0.17613   0.17073  -0.0213  0.0098  0.1000  -3.1687   0.0000   0.2620
  16.700   0.7006   0.17879   0.17338  -0.0226  0.0097  0.1000  -3.0524   0.0000   0.2639
  16.800   0.7014   0.18099   0.17557  -0.0237  0.0095  0.1000  -2.9765   0.0000   0.2653
  16.900   0.7028   0.18289   0.17748  -0.0247  0.0095  0.1000  -2.9278   0.0000   0.2666
  17.000   0.7045   0.18472   0.17930  -0.0256  0.0094  0.1000  -2.8858   0.0000   0.2678
  17.100   0.7064   0.18647   0.18106  -0.0266  0.0093  0.1000  -2.8487   0.0000   0.2689
  17.200   0.7084   0.18819   0.18277  -0.0275  0.0093  0.1000  -2.8151   0.0000   0.2700
  17.300   0.7105   0.18984   0.18443  -0.0284  0.0092  0.1000  -2.7859   0.0000   0.2711
  17.400   0.7127   0.19144   0.18603  -0.0293  0.0091  0.1000  -2.7629   0.0000   0.2721
  17.500   0.7152   0.19295   0.18754  -0.0302  0.0090  0.1000  -2.7472   0.0000   0.2730
  17.600   0.7178   0.19438   0.18898  -0.0310  0.0088  0.1000  -2.7397   0.0000   0.2739
  17.700   0.7205   0.19572   0.19033  -0.0318  0.0087  0.1000  -2.7404   0.0000   0.2747
  17.800   0.7234   0.19700   0.19161  -0.0326  0.0086  0.1000  -2.7486   0.0000   0.2755
  17.900   0.7264   0.19821   0.19282  -0.0334  0.0085  0.1000  -2.7644   0.0000   0.2762
  18.000   0.7296   0.19936   0.19398  -0.0341  0.0084  0.1000  -2.7881   0.0000   0.2769


