xflr5 v6.11

 Calculated polar for: NACA 63012 AIRFOIL

 1 1 Reynolds number fixed          Mach number fixed         

 xtrf =   0.050 (top)        0.100 (bottom)
 Mach =   0.650     Re =     1.300 e 6     Ncrit =   1.000

  alpha     CL        CD       CDp       Cm    Top Xtr Bot Xtr   Cpmin    Chinge    XCp    
 ------- -------- --------- --------- -------- ------- ------- -------- --------- ---------
  -2.000  -0.2890   0.01063   0.00281  -0.0047  0.0500  0.0960  -0.8824   0.0000   0.2295
  -1.900  -0.2750   0.01059   0.00276  -0.0043  0.0500  0.1000  -0.8362   0.0000   0.2301
  -1.800  -0.2606   0.01058   0.00272  -0.0040  0.0500  0.1000  -0.7913   0.0000   0.2304
  -1.700  -0.2462   0.01056   0.00269  -0.0037  0.0500  0.1000  -0.7483   0.0000   0.2308
  -1.600  -0.2318   0.01055   0.00266  -0.0034  0.0500  0.1000  -0.7061   0.0000   0.2311
  -1.500  -0.2175   0.01053   0.00264  -0.0031  0.0500  0.1000  -0.6747   0.0000   0.2314
  -1.400  -0.2031   0.01052   0.00261  -0.0029  0.0500  0.1000  -0.6538   0.0000   0.2318
  -1.300  -0.1887   0.01051   0.00259  -0.0026  0.0500  0.1000  -0.6344   0.0000   0.2321
  -1.200  -0.1744   0.01050   0.00257  -0.0023  0.0500  0.1000  -0.6151   0.0000   0.2325
  -1.100  -0.1601   0.01049   0.00255  -0.0021  0.0500  0.1000  -0.5961   0.0000   0.2329
  -1.000  -0.1458   0.01049   0.00253  -0.0018  0.0500  0.1000  -0.5808   0.0000   0.2334
  -0.900  -0.1315   0.01048   0.00252  -0.0016  0.0500  0.1000  -0.5713   0.0000   0.2339
  -0.800  -0.1172   0.01048   0.00251  -0.0014  0.0500  0.1000  -0.5620   0.0000   0.2345
  -0.700  -0.1029   0.01047   0.00250  -0.0011  0.0500  0.1000  -0.5528   0.0000   0.2352
  -0.600  -0.0886   0.01047   0.00249  -0.0009  0.0500  0.1000  -0.5435   0.0000   0.2361
  -0.500  -0.0743   0.01047   0.00248  -0.0007  0.0500  0.1000  -0.5344   0.0000   0.2373
  -0.400  -0.0600   0.01047   0.00247  -0.0004  0.0500  0.1000  -0.5254   0.0000   0.2391
  -0.300  -0.0458   0.01047   0.00247  -0.0002  0.0500  0.1000  -0.5165   0.0000   0.2419
  -0.200  -0.0315   0.01047   0.00247   0.0000  0.0500  0.1000  -0.5075   0.0000   0.2472
  -0.100  -0.0173   0.01048   0.00247   0.0003  0.0500  0.1000  -0.4986   0.0000   0.2612
   0.000  -0.0030   0.01048   0.00247   0.0005  0.0500  0.1000  -0.4899   0.0000   0.4075
   0.100   0.0112   0.01049   0.00247   0.0007  0.0500  0.1000  -0.4959   0.0000   0.1825
   0.200   0.0255   0.01049   0.00248   0.0009  0.0500  0.1000  -0.5048   0.0000   0.2091
   0.300   0.0397   0.01050   0.00249   0.0012  0.0500  0.1000  -0.5137   0.0000   0.2166
   0.400   0.0539   0.01051   0.00250   0.0014  0.0500  0.1000  -0.5227   0.0000   0.2201
   0.500   0.0682   0.01052   0.00251   0.0016  0.0500  0.1000  -0.5316   0.0000   0.2221
   0.600   0.0824   0.01053   0.00252   0.0019  0.0500  0.1000  -0.5407   0.0000   0.2233
   0.700   0.0967   0.01054   0.00254   0.0021  0.0500  0.1000  -0.5500   0.0000   0.2242
   0.800   0.1109   0.01056   0.00255   0.0023  0.0500  0.1000  -0.5592   0.0000   0.2248
   0.900   0.1251   0.01057   0.00257   0.0026  0.0500  0.1000  -0.5685   0.0000   0.2252
   1.000   0.1394   0.01059   0.00259   0.0028  0.0500  0.1000  -0.5779   0.0000   0.2255
   1.100   0.1536   0.01060   0.00262   0.0031  0.0500  0.1000  -0.5874   0.0000   0.2257
   1.200   0.1679   0.01062   0.00264   0.0034  0.0500  0.1000  -0.5989   0.0000   0.2259
   1.300   0.1821   0.01064   0.00267   0.0036  0.0500  0.1000  -0.6177   0.0000   0.2259
   1.400   0.1964   0.01066   0.00270   0.0039  0.0500  0.1000  -0.6444   0.0000   0.2259
   1.500   0.2106   0.01068   0.00273   0.0042  0.0500  0.1000  -0.6715   0.0000   0.2259
   1.600   0.2249   0.01071   0.00276   0.0045  0.0500  0.1000  -0.6991   0.0000   0.2259
   1.700   0.2391   0.01073   0.00280   0.0048  0.0500  0.1000  -0.7360   0.0000   0.2258
   1.800   0.2534   0.01076   0.00284   0.0051  0.0500  0.1000  -0.7786   0.0000   0.2256
   1.900   0.2677   0.01079   0.00288   0.0054  0.0500  0.1000  -0.8222   0.0000   0.2255
   2.000   0.2819   0.01082   0.00292   0.0057  0.0500  0.1000  -0.8690   0.0000   0.2253
   2.100   0.2962   0.01085   0.00296   0.0061  0.0500  0.1000  -0.9165   0.0000   0.2251
   2.200   0.3105   0.01088   0.00301   0.0064  0.0500  0.1000  -0.9650   0.0000   0.2249
   2.300   0.3248   0.01091   0.00306   0.0068  0.0500  0.1000  -1.0344   0.0000   0.2246
   2.400   0.3391   0.01095   0.00312   0.0072  0.0499  0.1000  -1.1108   0.0000   0.2244
   2.500   0.3527   0.01101   0.00319   0.0077  0.0459  0.1000  -1.1876   0.0000   0.2238
   2.600   0.3666   0.01107   0.00326   0.0081  0.0430  0.1000  -1.2670   0.0000   0.2233
   2.700   0.3803   0.01114   0.00333   0.0086  0.0395  0.1000  -1.3479   0.0000   0.2227
   2.900   0.4077   0.01129   0.00350   0.0097  0.0333  0.1000  -1.5166   0.0000   0.2215
   3.000   0.4211   0.01138   0.00359   0.0103  0.0290  0.1000  -1.6032   0.0000   0.2207
   3.300   0.4606   0.01168   0.00392   0.0123  0.0155  0.1000  -1.8770   0.0000   0.2183
   3.400   0.4742   0.01176   0.00403   0.0130  0.0140  0.1000  -1.9749   0.0000   0.2176
   3.500   0.4878   0.01185   0.00413   0.0136  0.0131  0.1000  -2.0757   0.0000   0.2170
   3.600   0.5014   0.01194   0.00425   0.0143  0.0124  0.1000  -2.1792   0.0000   0.2163
   3.700   0.5150   0.01203   0.00437   0.0150  0.0117  0.1000  -2.2858   0.0000   0.2156
   3.800   0.5285   0.01212   0.00449   0.0158  0.0112  0.1000  -2.3953   0.0000   0.2148
   3.900   0.5420   0.01222   0.00462   0.0165  0.0107  0.1000  -2.5079   0.0000   0.2141
   4.000   0.5554   0.01232   0.00476   0.0174  0.0104  0.1000  -2.6236   0.0000   0.2133
   4.100   0.5687   0.01243   0.00490   0.0182  0.0101  0.1000  -2.7423   0.0000   0.2124
   4.200   0.5820   0.01254   0.00506   0.0191  0.0098  0.1000  -2.8644   0.0000   0.2115
   4.300   0.5951   0.01266   0.00522   0.0201  0.0097  0.1000  -2.9923   0.0000   0.2106
   4.400   0.6081   0.01279   0.00539   0.0210  0.0095  0.1000  -3.1222   0.0000   0.2096
   4.500   0.6209   0.01293   0.00558   0.0221  0.0094  0.1000  -3.2530   0.0000   0.2085
   4.600   0.6334   0.01308   0.00579   0.0232  0.0093  0.1000  -3.3834   0.0000   0.2073
   4.700   0.6454   0.01325   0.00602   0.0245  0.0092  0.1000  -3.5109   0.0000   0.2059
   4.800   0.6567   0.01345   0.00629   0.0258  0.0091  0.1000  -3.6333   0.0000   0.2044
   4.900   0.6673   0.01368   0.00659   0.0273  0.0090  0.1000  -3.7472   0.0000   0.2027
   5.000   0.6768   0.01395   0.00693   0.0290  0.0090  0.1000  -3.8504   0.0000   0.2007
   5.100   0.6850   0.01425   0.00732   0.0309  0.0089  0.1000  -3.9409   0.0000   0.1984
   5.200   0.6919   0.01460   0.00776   0.0329  0.0088  0.1000  -4.0181   0.0000   0.1958
   5.300   0.6964   0.01496   0.00821   0.0352  0.0088  0.1000  -4.0801   0.0000   0.1926
   5.400   0.6993   0.01534   0.00867   0.0378  0.0087  0.1000  -4.1314   0.0000   0.1889
   5.500   0.7019   0.01577   0.00918   0.0404  0.0087  0.1000  -4.1762   0.0000   0.1854
   5.600   0.7047   0.01628   0.00978   0.0428  0.0086  0.1000  -4.2159   0.0000   0.1820
   5.700   0.7079   0.01686   0.01046   0.0450  0.0085  0.1000  -4.2506   0.0000   0.1790
   5.800   0.7113   0.01751   0.01121   0.0472  0.0085  0.1000  -4.2797   0.0000   0.1761
   5.900   0.7148   0.01822   0.01203   0.0492  0.0084  0.1000  -4.3029   0.0000   0.1735
   6.000   0.7182   0.01900   0.01291   0.0511  0.0083  0.1000  -4.3179   0.0000   0.1710
   6.100   0.7213   0.01985   0.01388   0.0530  0.0081  0.1000  -4.3215   0.0000   0.1686
   6.200   0.7238   0.02076   0.01491   0.0548  0.0079  0.1000  -4.3203   0.0000   0.1662
   6.300   0.7258   0.02173   0.01599   0.0565  0.0078  0.1000  -4.3185   0.0000   0.1640
   6.400   0.7268   0.02274   0.01712   0.0581  0.0077  0.1000  -4.3282   0.0000   0.1617
   6.500   0.7268   0.02381   0.01829   0.0597  0.0076  0.1000  -4.3354   0.0000   0.1594
   6.600   0.7259   0.02492   0.01951   0.0611  0.0075  0.1000  -4.3387   0.0000   0.1572
   6.700   0.7241   0.02608   0.02078   0.0624  0.0074  0.1000  -4.3386   0.0000   0.1551
   6.800   0.7216   0.02730   0.02209   0.0635  0.0074  0.1000  -4.3358   0.0000   0.1530
   6.900   0.7183   0.02857   0.02345   0.0645  0.0073  0.1000  -4.3306   0.0000   0.1511
   7.000   0.7145   0.02989   0.02486   0.0653  0.0073  0.1000  -4.3234   0.0000   0.1493
   7.100   0.7102   0.03128   0.02633   0.0659  0.0072  0.1000  -4.3144   0.0000   0.1477
   7.200   0.7055   0.03274   0.02786   0.0664  0.0072  0.1000  -4.3039   0.0000   0.1463
   7.300   0.7004   0.03425   0.02945   0.0666  0.0071  0.1000  -4.2920   0.0000   0.1451
   7.400   0.6951   0.03584   0.03111   0.0666  0.0071  0.1000  -4.2787   0.0000   0.1441
   7.500   0.6895   0.03750   0.03283   0.0665  0.0070  0.1000  -4.2637   0.0000   0.1434
   7.600   0.6836   0.03924   0.03463   0.0661  0.0070  0.1000  -4.2456   0.0000   0.1429
   7.700   0.6774   0.04106   0.03651   0.0656  0.0069  0.1000  -4.2241   0.0000   0.1427
   7.800   0.6712   0.04296   0.03846   0.0648  0.0068  0.1000  -4.2004   0.0000   0.1427
   7.900   0.6649   0.04494   0.04049   0.0639  0.0067  0.1000  -4.1751   0.0000   0.1430
   8.000   0.6585   0.04700   0.04260   0.0628  0.0066  0.1000  -4.1484   0.0000   0.1436
   8.100   0.6522   0.04914   0.04477   0.0615  0.0065  0.1000  -4.1259   0.0000   0.1444
   8.200   0.6460   0.05135   0.04702   0.0601  0.0065  0.1000  -4.1036   0.0000   0.1455
   8.300   0.6399   0.05363   0.04934   0.0586  0.0065  0.1000  -4.0794   0.0000   0.1469
   8.400   0.6339   0.05599   0.05173   0.0569  0.0064  0.1000  -4.0526   0.0000   0.1485
   8.500   0.6282   0.05843   0.05418   0.0552  0.0064  0.1000  -4.0229   0.0000   0.1503
   8.600   0.6228   0.06092   0.05670   0.0534  0.0063  0.1000  -3.9902   0.0000   0.1524
   8.700   0.6176   0.06349   0.05929   0.0515  0.0063  0.1000  -3.9541   0.0000   0.1546
   8.800   0.6129   0.06611   0.06192   0.0496  0.0063  0.1000  -3.9145   0.0000   0.1569
   8.900   0.6087   0.06880   0.06462   0.0478  0.0062  0.1000  -3.8704   0.0000   0.1593
   9.000   0.6049   0.07153   0.06736   0.0459  0.0062  0.1000  -3.8236   0.0000   0.1618
   9.100   0.6013   0.07412   0.06994   0.0443  0.0062  0.1000  -3.7805   0.0000   0.1640
   9.200   0.5979   0.07661   0.07243   0.0427  0.0061  0.1000  -3.7398   0.0000   0.1662
   9.300   0.5947   0.07905   0.07487   0.0412  0.0061  0.1000  -3.7005   0.0000   0.1682
   9.400   0.5918   0.08145   0.07726   0.0398  0.0061  0.1000  -3.6622   0.0000   0.1703
   9.500   0.5891   0.08381   0.07962   0.0383  0.0060  0.1000  -3.6247   0.0000   0.1723
   9.600   0.5867   0.08615   0.08195   0.0370  0.0060  0.1000  -3.5879   0.0000   0.1743
   9.700   0.5846   0.08847   0.08427   0.0356  0.0060  0.1000  -3.5517   0.0000   0.1762
   9.800   0.5827   0.09077   0.08657   0.0343  0.0059  0.1000  -3.5161   0.0000   0.1782
   9.900   0.5811   0.09306   0.08886   0.0330  0.0059  0.1000  -3.4806   0.0000   0.1802
  10.000   0.5797   0.09536   0.09115   0.0317  0.0058  0.1000  -3.4451   0.0000   0.1822
  10.100   0.5785   0.09765   0.09343   0.0304  0.0058  0.1000  -3.4072   0.0000   0.1842
  10.200   0.5775   0.09994   0.09572   0.0291  0.0057  0.1000  -3.3723   0.0000   0.1863
  10.300   0.5768   0.10223   0.09801   0.0279  0.0056  0.1000  -3.3389   0.0000   0.1883
  10.400   0.5763   0.10452   0.10030   0.0266  0.0055  0.1000  -3.3057   0.0000   0.1903
  10.500   0.5760   0.10680   0.10257   0.0254  0.0054  0.1000  -3.2736   0.0000   0.1924
  10.600   0.5761   0.10906   0.10483   0.0242  0.0053  0.1000  -3.2436   0.0000   0.1944
  10.700   0.5764   0.11131   0.10708   0.0230  0.0053  0.1000  -3.2155   0.0000   0.1964
  10.800   0.5770   0.11355   0.10932   0.0218  0.0052  0.1000  -3.1880   0.0000   0.1984
  10.900   0.5777   0.11579   0.11156   0.0207  0.0052  0.1000  -3.1610   0.0000   0.2003
  11.000   0.5787   0.11802   0.11379   0.0195  0.0051  0.1000  -3.1347   0.0000   0.2023
  11.100   0.5799   0.12025   0.11602   0.0184  0.0051  0.1000  -3.1090   0.0000   0.2043
  11.200   0.5812   0.12248   0.11824   0.0173  0.0050  0.1000  -3.0841   0.0000   0.2062
  11.300   0.5828   0.12471   0.12047   0.0161  0.0050  0.1000  -3.0599   0.0000   0.2081
  11.400   0.5845   0.12693   0.12269   0.0150  0.0049  0.1000  -3.0366   0.0000   0.2100
  11.500   0.5864   0.12914   0.12490   0.0139  0.0049  0.1000  -3.0144   0.0000   0.2119
  11.600   0.5885   0.13137   0.12713   0.0128  0.0048  0.1000  -2.9977   0.0000   0.2137
  11.700   0.5906   0.13362   0.12938   0.0117  0.0047  0.1000  -2.9780   0.0000   0.2156
  11.800   0.5928   0.13587   0.13163   0.0106  0.0046  0.1000  -2.9570   0.0000   0.2174
  11.900   0.5951   0.13814   0.13390   0.0095  0.0045  0.1000  -2.9367   0.0000   0.2193
  12.000   0.5977   0.14040   0.13616   0.0084  0.0044  0.1000  -2.9182   0.0000   0.2211
  12.100   0.6004   0.14264   0.13840   0.0074  0.0043  0.1000  -2.9020   0.0000   0.2228
  12.200   0.6031   0.14487   0.14063   0.0063  0.0042  0.1000  -2.8862   0.0000   0.2246
  12.300   0.6060   0.14713   0.14289   0.0052  0.0042  0.1000  -2.8707   0.0000   0.2263
  12.400   0.6090   0.14938   0.14514   0.0041  0.0041  0.1000  -2.8556   0.0000   0.2280
  12.500   0.6122   0.15164   0.14740   0.0031  0.0041  0.1000  -2.8409   0.0000   0.2297
  12.600   0.6154   0.15390   0.14966   0.0020  0.0040  0.1000  -2.8266   0.0000   0.2313
  12.700   0.6187   0.15617   0.15193   0.0010  0.0040  0.1000  -2.8167   0.0000   0.2330
  12.800   0.6220   0.15844   0.15420  -0.0001  0.0039  0.1000  -2.8094   0.0000   0.2346
  12.900   0.6255   0.16076   0.15652  -0.0011  0.0038  0.1000  -2.8007   0.0000   0.2362
  13.000   0.6289   0.16310   0.15886  -0.0022  0.0037  0.1000  -2.7874   0.0000   0.2378
  13.100   0.6324   0.16544   0.16121  -0.0033  0.0036  0.1000  -2.7743   0.0000   0.2393
  13.200   0.6360   0.16779   0.16356  -0.0043  0.0035  0.1000  -2.7628   0.0000   0.2409
  13.300   0.6397   0.17013   0.16590  -0.0054  0.0034  0.1000  -2.7535   0.0000   0.2424
  13.400   0.6435   0.17248   0.16826  -0.0065  0.0034  0.1000  -2.7443   0.0000   0.2439
  13.500   0.6473   0.17485   0.17063  -0.0075  0.0033  0.1000  -2.7353   0.0000   0.2454
  13.600   0.6512   0.17724   0.17301  -0.0086  0.0033  0.1000  -2.7263   0.0000   0.2468
  13.700   0.6552   0.17964   0.17541  -0.0096  0.0032  0.1000  -2.7176   0.0000   0.2483
  13.800   0.6592   0.18205   0.17783  -0.0107  0.0032  0.1000  -2.7098   0.0000   0.2497
  13.900   0.6633   0.18448   0.18026  -0.0118  0.0031  0.1000  -2.7083   0.0000   0.2511
  14.000   0.6674   0.18692   0.18271  -0.0128  0.0030  0.1000  -2.7071   0.0000   0.2524
  14.100   0.6715   0.18942   0.18520  -0.0139  0.0029  0.1000  -2.7003   0.0000   0.2538
  14.200   0.6756   0.19195   0.18773  -0.0150  0.0028  0.1000  -2.6908   0.0000   0.2552
  14.300   0.6798   0.19449   0.19028  -0.0160  0.0027  0.1000  -2.6823   0.0000   0.2565
  14.400   0.6841   0.19703   0.19283  -0.0171  0.0027  0.1000  -2.6761   0.0000   0.2578
  14.500   0.6884   0.19959   0.19538  -0.0182  0.0026  0.1000  -2.6710   0.0000   0.2591
  14.600   0.6927   0.20217   0.19796  -0.0193  0.0026  0.1000  -2.6658   0.0000   0.2604
  14.700   0.6971   0.20477   0.20057  -0.0203  0.0025  0.1000  -2.6606   0.0000   0.2617
  14.800   0.7016   0.20739   0.20320  -0.0214  0.0025  0.1000  -2.6554   0.0000   0.2629
  14.900   0.7061   0.21004   0.20585  -0.0225  0.0025  0.1000  -2.6504   0.0000   0.2641
  15.000   0.7106   0.21271   0.20852  -0.0236  0.0024  0.1000  -2.6454   0.0000   0.2653
  15.100   0.7151   0.21541   0.21122  -0.0247  0.0024  0.1000  -2.6477   0.0000   0.2665
  15.200   0.7197   0.21815   0.21396  -0.0257  0.0023  0.1000  -2.6486   0.0000   0.2677
  15.300   0.7242   0.22097   0.21679  -0.0268  0.0022  0.1000  -2.6423   0.0000   0.2689
  15.400   0.7288   0.22382   0.21964  -0.0279  0.0021  0.1000  -2.6356   0.0000   0.2700
  15.500   0.7334   0.22668   0.22250  -0.0290  0.0020  0.1000  -2.6302   0.0000   0.2712
  15.600   0.7380   0.22955   0.22537  -0.0301  0.0020  0.1000  -2.6271   0.0000   0.2723
  15.700   0.7427   0.23245   0.22827  -0.0312  0.0020  0.1000  -2.6246   0.0000   0.2734
  15.800   0.7474   0.23537   0.23120  -0.0323  0.0019  0.1000  -2.6220   0.0000   0.2745
  15.900   0.7522   0.23833   0.23417  -0.0334  0.0019  0.1000  -2.6192   0.0000   0.2756
  16.000   0.7569   0.24134   0.23718  -0.0346  0.0018  0.1000  -2.6165   0.0000   0.2766
  16.100   0.7617   0.24438   0.24021  -0.0357  0.0018  0.1000  -2.6138   0.0000   0.2777
  16.200   0.7665   0.24744   0.24329  -0.0368  0.0018  0.1000  -2.6112   0.0000   0.2787
  16.300   0.7714   0.25055   0.24640  -0.0379  0.0018  0.1000  -2.6086   0.0000   0.2797
  16.400   0.7762   0.25371   0.24956  -0.0390  0.0017  0.1000  -2.6093   0.0000   0.2807
  16.500   0.7810   0.25699   0.25284  -0.0401  0.0016  0.1000  -2.6058   0.0000   0.2818
  16.600   0.7858   0.26030   0.25616  -0.0413  0.0016  0.1000  -2.6015   0.0000   0.2828
  16.700   0.7907   0.26365   0.25951  -0.0424  0.0015  0.1000  -2.5973   0.0000   0.2838
  16.800   0.7956   0.26704   0.26290  -0.0435  0.0015  0.1000  -2.5948   0.0000   0.2847
  16.900   0.8005   0.27045   0.26632  -0.0447  0.0014  0.1000  -2.5943   0.0000   0.2857
  17.000   0.8054   0.27390   0.26977  -0.0458  0.0014  0.1000  -2.5937   0.0000   0.2866
  17.100   0.8104   0.27743   0.27330  -0.0470  0.0014  0.1000  -2.5930   0.0000   0.2876
  17.200   0.8153   0.28097   0.27685  -0.0481  0.0013  0.1000  -2.5921   0.0000   0.2885
  17.300   0.8203   0.28462   0.28050  -0.0492  0.0013  0.1000  -2.5912   0.0000   0.2894
  17.400   0.8253   0.28829   0.28417  -0.0504  0.0013  0.1000  -2.5904   0.0000   0.2903
  17.500   0.8303   0.29202   0.28790  -0.0515  0.0013  0.1000  -2.5897   0.0000   0.2912
  17.600   0.8353   0.29580   0.29169  -0.0527  0.0012  0.1000  -2.5892   0.0000   0.2920
  17.700   0.8403   0.29965   0.29554  -0.0539  0.0012  0.1000  -2.5873   0.0000   0.2929
  17.800   0.8453   0.30361   0.29951  -0.0550  0.0012  0.1000  -2.5786   0.0000   0.2938
  17.900   0.8503   0.30766   0.30357  -0.0562  0.0011  0.1000  -2.5706   0.0000   0.2946
  18.000   0.8553   0.31179   0.30770  -0.0574  0.0011  0.1000  -2.5681   0.0000   0.2955
  18.100   0.8603   0.31598   0.31189  -0.0585  0.0010  0.1000  -2.5659   0.0000   0.2963
  18.200   0.8653   0.32023   0.31614  -0.0597  0.0010  0.1000  -2.5653   0.0000   0.2971
  18.300   0.8703   0.32453   0.32045  -0.0609  0.0010  0.1000  -2.5665   0.0000   0.2979
  18.400   0.8754   0.32891   0.32483  -0.0621  0.0009  0.1000  -2.5678   0.0000   0.2987
  18.500   0.8804   0.33336   0.32929  -0.0633  0.0009  0.1000  -2.5690   0.0000   0.2995
  18.600   0.8855   0.33791   0.33384  -0.0644  0.0009  0.1000  -2.5700   0.0000   0.3003
  18.700   0.8906   0.34254   0.33847  -0.0656  0.0009  0.1000  -2.5709   0.0000   0.3011
  18.800   0.8956   0.34725   0.34319  -0.0668  0.0009  0.1000  -2.5718   0.0000   0.3018
  18.900   0.9007   0.35206   0.34801  -0.0680  0.0008  0.1000  -2.5726   0.0000   0.3026
  19.000   0.9058   0.35697   0.35292  -0.0692  0.0008  0.1000  -2.5734   0.0000   0.3034
  19.100   0.9109   0.36197   0.35792  -0.0704  0.0008  0.1000  -2.5743   0.0000   0.3041
  19.200   0.9160   0.36709   0.36305  -0.0716  0.0008  0.1000  -2.5725   0.0000   0.3048
  19.300   0.9210   0.37237   0.36833  -0.0728  0.0008  0.1000  -2.5676   0.0000   0.3056
  19.400   0.9261   0.37776   0.37373  -0.0740  0.0008  0.1000  -2.5602   0.0000   0.3063
  19.500   0.9311   0.38331   0.37929  -0.0753  0.0007  0.1000  -2.5511   0.0000   0.3070
  19.600   0.9362   0.38898   0.38495  -0.0765  0.0007  0.1000  -2.5414   0.0000   0.3077
  19.700   0.9413   0.39476   0.39074  -0.0777  0.0007  0.1000  -2.5319   0.0000   0.3084
  19.800   0.9463   0.40066   0.39664  -0.0789  0.0006  0.1000  -2.5325   0.0000   0.3091
  19.900   0.9514   0.40665   0.40265  -0.0801  0.0006  0.1000  -2.5356   0.0000   0.3098
  20.000   0.9565   0.41278   0.40878  -0.0814  0.0006  0.1000  -2.5388   0.0000   0.3105


