xflr5 v6.11

 Calculated polar for: NACA 63012 AIRFOIL

 1 1 Reynolds number fixed          Mach number fixed         

 xtrf =   0.050 (top)        0.100 (bottom)
 Mach =   0.100     Re =     0.200 e 6     Ncrit =   4.000

  alpha     CL        CD       CDp       Cm    Top Xtr Bot Xtr   Cpmin    Chinge    XCp    
 ------- -------- --------- --------- -------- ------- ------- -------- --------- ---------
  -2.000  -0.2118   0.01515   0.00277  -0.0020  0.0500  0.1000  -0.6226   0.0000   0.2366
  -1.900  -0.2013   0.01513   0.00273  -0.0019  0.0500  0.1000  -0.5921   0.0000   0.2367
  -1.800  -0.1908   0.01511   0.00270  -0.0017  0.0500  0.1000  -0.5632   0.0000   0.2368
  -1.700  -0.1803   0.01510   0.00266  -0.0016  0.0500  0.1000  -0.5349   0.0000   0.2369
  -1.600  -0.1698   0.01509   0.00263  -0.0015  0.0500  0.1000  -0.5074   0.0000   0.2370
  -1.500  -0.1593   0.01508   0.00260  -0.0014  0.0500  0.1000  -0.4862   0.0000   0.2372
  -1.400  -0.1488   0.01507   0.00258  -0.0013  0.0500  0.1000  -0.4706   0.0000   0.2373
  -1.300  -0.1383   0.01506   0.00255  -0.0012  0.0500  0.1000  -0.4585   0.0000   0.2375
  -1.200  -0.1278   0.01505   0.00253  -0.0011  0.0500  0.1000  -0.4464   0.0000   0.2376
  -1.100  -0.1173   0.01504   0.00251  -0.0010  0.0500  0.1000  -0.4343   0.0000   0.2378
  -1.000  -0.1068   0.01503   0.00249  -0.0009  0.0500  0.1000  -0.4223   0.0000   0.2380
  -0.900  -0.0962   0.01503   0.00247  -0.0008  0.0500  0.1000  -0.4122   0.0000   0.2383
  -0.800  -0.0857   0.01502   0.00245  -0.0006  0.0500  0.1000  -0.4058   0.0000   0.2386
  -0.700  -0.0752   0.01502   0.00244  -0.0005  0.0500  0.1000  -0.3994   0.0000   0.2390
  -0.600  -0.0647   0.01502   0.00243  -0.0004  0.0500  0.1000  -0.3930   0.0000   0.2395
  -0.500  -0.0541   0.01502   0.00242  -0.0003  0.0500  0.1000  -0.3867   0.0000   0.2402
  -0.400  -0.0436   0.01502   0.00241  -0.0002  0.0500  0.1000  -0.3804   0.0000   0.2412
  -0.300  -0.0331   0.01502   0.00241  -0.0001  0.0500  0.1000  -0.3742   0.0000   0.2429
  -0.200  -0.0226   0.01502   0.00241  -0.0000  0.0500  0.1000  -0.3679   0.0000   0.2461
  -0.100  -0.0120   0.01502   0.00240   0.0001  0.0500  0.1000  -0.3617   0.0000   0.2550
   0.000  -0.0015   0.01503   0.00240   0.0002  0.0500  0.1000  -0.3556   0.0000   0.3873
   0.100   0.0090   0.01503   0.00241   0.0003  0.0500  0.1000  -0.3606   0.0000   0.2106
   0.200   0.0195   0.01504   0.00241   0.0004  0.0500  0.1000  -0.3669   0.0000   0.2243
   0.300   0.0301   0.01505   0.00242   0.0005  0.0500  0.1000  -0.3731   0.0000   0.2284
   0.400   0.0406   0.01506   0.00243   0.0006  0.0500  0.1000  -0.3794   0.0000   0.2303
   0.500   0.0511   0.01507   0.00244   0.0007  0.0500  0.1000  -0.3856   0.0000   0.2314
   0.600   0.0616   0.01508   0.00245   0.0009  0.0500  0.1000  -0.3920   0.0000   0.2322
   0.700   0.0721   0.01509   0.00247   0.0010  0.0500  0.1000  -0.3984   0.0000   0.2327
   0.800   0.0826   0.01510   0.00248   0.0011  0.0500  0.1000  -0.4048   0.0000   0.2331
   0.900   0.0931   0.01512   0.00250   0.0012  0.0500  0.1000  -0.4113   0.0000   0.2333
   1.000   0.1036   0.01513   0.00252   0.0013  0.0500  0.1000  -0.4179   0.0000   0.2336
   1.100   0.1141   0.01515   0.00255   0.0014  0.0500  0.1000  -0.4256   0.0000   0.2337
   1.200   0.1246   0.01516   0.00257   0.0015  0.0500  0.1000  -0.4355   0.0000   0.2338
   1.300   0.1351   0.01518   0.00260   0.0016  0.0500  0.1000  -0.4516   0.0000   0.2339
   1.400   0.1456   0.01520   0.00262   0.0017  0.0500  0.1000  -0.4679   0.0000   0.2340
   1.500   0.1560   0.01522   0.00266   0.0019  0.0500  0.1000  -0.4843   0.0000   0.2341
   1.600   0.1665   0.01524   0.00269   0.0020  0.0500  0.1000  -0.5042   0.0000   0.2341
   1.700   0.1770   0.01527   0.00272   0.0021  0.0500  0.1000  -0.5298   0.0000   0.2341
   1.800   0.1874   0.01529   0.00276   0.0022  0.0500  0.1000  -0.5580   0.0000   0.2341
   1.900   0.1979   0.01532   0.00280   0.0023  0.0500  0.1000  -0.5865   0.0000   0.2341
   2.000   0.2083   0.01534   0.00284   0.0024  0.0500  0.1000  -0.6168   0.0000   0.2341
   2.100   0.2187   0.01537   0.00289   0.0026  0.0500  0.1000  -0.6475   0.0000   0.2341
   2.200   0.2291   0.01540   0.00293   0.0027  0.0500  0.1000  -0.6785   0.0000   0.2341
   2.300   0.2396   0.01543   0.00298   0.0028  0.0500  0.1000  -0.7182   0.0000   0.2340
   2.400   0.2500   0.01546   0.00303   0.0029  0.0500  0.1000  -0.7647   0.0000   0.2340
   2.500   0.2604   0.01549   0.00308   0.0031  0.0500  0.1000  -0.8126   0.0000   0.2339
   2.600   0.2707   0.01553   0.00314   0.0032  0.0500  0.1000  -0.8610   0.0000   0.2339
   2.700   0.2811   0.01557   0.00320   0.0033  0.0500  0.1000  -0.9100   0.0000   0.2338
   2.800   0.2915   0.01560   0.00326   0.0035  0.0500  0.1000  -0.9596   0.0000   0.2337
   2.900   0.3018   0.01564   0.00332   0.0036  0.0500  0.1000  -1.0097   0.0000   0.2337
   3.000   0.3122   0.01568   0.00338   0.0037  0.0500  0.1000  -1.0604   0.0000   0.2336
   3.100   0.3225   0.01572   0.00345   0.0039  0.0500  0.1000  -1.1116   0.0000   0.2335
   3.200   0.3328   0.01577   0.00352   0.0040  0.0500  0.1000  -1.1634   0.0000   0.2334
   3.300   0.3431   0.01581   0.00359   0.0042  0.0500  0.1000  -1.2157   0.0000   0.2333
   3.400   0.3534   0.01586   0.00367   0.0043  0.0500  0.1000  -1.2685   0.0000   0.2332
   3.500   0.3637   0.01590   0.00374   0.0044  0.0500  0.1000  -1.3218   0.0000   0.2331
   3.600   0.3739   0.01595   0.00383   0.0046  0.0500  0.1000  -1.3756   0.0000   0.2330
   3.700   0.3842   0.01600   0.00391   0.0048  0.0500  0.1000  -1.4299   0.0000   0.2329
   3.800   0.3944   0.01606   0.00399   0.0049  0.0500  0.1000  -1.4846   0.0000   0.2327
   3.900   0.4046   0.01611   0.00408   0.0051  0.0500  0.1000  -1.5409   0.0000   0.2326
   4.000   0.4148   0.01617   0.00417   0.0052  0.0500  0.1000  -1.5998   0.0000   0.2325
   4.100   0.4249   0.01623   0.00427   0.0054  0.0500  0.1000  -1.6591   0.0000   0.2323
   4.200   0.4351   0.01629   0.00437   0.0056  0.0500  0.1000  -1.7190   0.0000   0.2322
   4.300   0.4452   0.01635   0.00447   0.0057  0.0500  0.1000  -1.7793   0.0000   0.2320
   4.400   0.4553   0.01642   0.00457   0.0059  0.0500  0.1000  -1.8400   0.0000   0.2319
   4.500   0.4654   0.01648   0.00468   0.0061  0.0500  0.1000  -1.9011   0.0000   0.2317
   4.600   0.4755   0.01655   0.00480   0.0063  0.0500  0.1000  -1.9625   0.0000   0.2315
   4.700   0.4855   0.01663   0.00491   0.0065  0.0500  0.1000  -2.0243   0.0000   0.2314
   4.800   0.4955   0.01670   0.00503   0.0067  0.0500  0.1000  -2.0864   0.0000   0.2312
   4.900   0.5054   0.01678   0.00516   0.0069  0.0500  0.1000  -2.1487   0.0000   0.2310
   5.000   0.5154   0.01686   0.00529   0.0071  0.0500  0.1000  -2.2112   0.0000   0.2308
   5.100   0.5253   0.01695   0.00542   0.0073  0.0500  0.1000  -2.2737   0.0000   0.2305
   5.200   0.5351   0.01704   0.00557   0.0075  0.0500  0.1000  -2.3361   0.0000   0.2303
   5.300   0.5449   0.01714   0.00572   0.0077  0.0500  0.1000  -2.3983   0.0000   0.2301
   5.400   0.5546   0.01724   0.00587   0.0080  0.0500  0.1000  -2.4601   0.0000   0.2298
   5.500   0.5643   0.01735   0.00605   0.0083  0.0500  0.1000  -2.5222   0.0000   0.2295
   5.600   0.5738   0.01748   0.00623   0.0085  0.0500  0.1000  -2.5864   0.0000   0.2292
   5.700   0.5829   0.01764   0.00643   0.0089  0.0483  0.1000  -2.6500   0.0000   0.2288
   5.800   0.5918   0.01782   0.00662   0.0092  0.0452  0.1000  -2.7146   0.0000   0.2283
   5.900   0.6007   0.01800   0.00682   0.0096  0.0423  0.1000  -2.7797   0.0000   0.2279
   6.000   0.6095   0.01819   0.00703   0.0099  0.0400  0.1000  -2.8445   0.0000   0.2275
   6.100   0.6184   0.01837   0.00724   0.0103  0.0379  0.1000  -2.9096   0.0000   0.2271
   6.200   0.6269   0.01858   0.00745   0.0106  0.0362  0.1000  -2.9751   0.0000   0.2266
   6.300   0.6358   0.01876   0.00767   0.0110  0.0346  0.1000  -3.0394   0.0000   0.2262
   6.400   0.6445   0.01896   0.00790   0.0114  0.0331  0.1000  -3.1045   0.0000   0.2258
   6.500   0.6529   0.01917   0.00813   0.0118  0.0320  0.1000  -3.1709   0.0000   0.2253
   6.600   0.6613   0.01939   0.00838   0.0122  0.0310  0.1000  -3.2394   0.0000   0.2249
   6.700   0.6699   0.01960   0.00863   0.0126  0.0299  0.1000  -3.3078   0.0000   0.2244
   6.800   0.6783   0.01981   0.00888   0.0130  0.0289  0.1000  -3.3777   0.0000   0.2240
   6.900   0.6865   0.02004   0.00914   0.0134  0.0281  0.1000  -3.4490   0.0000   0.2235
   7.000   0.6945   0.02029   0.00939   0.0138  0.0274  0.1000  -3.5201   0.0000   0.2230
   7.100   0.7027   0.02052   0.00968   0.0143  0.0266  0.1000  -3.5875   0.0000   0.2225
   7.200   0.7108   0.02076   0.00997   0.0147  0.0259  0.1000  -3.6559   0.0000   0.2220
   7.300   0.7188   0.02101   0.01026   0.0152  0.0253  0.1000  -3.7247   0.0000   0.2215
   7.400   0.7266   0.02127   0.01055   0.0156  0.0248  0.1000  -3.7971   0.0000   0.2210
   7.500   0.7343   0.02154   0.01085   0.0161  0.0244  0.1000  -3.8718   0.0000   0.2205
   7.600   0.7419   0.02182   0.01115   0.0166  0.0240  0.1000  -3.9467   0.0000   0.2200
   7.700   0.7493   0.02211   0.01148   0.0171  0.0236  0.1000  -4.0185   0.0000   0.2194
   7.800   0.7569   0.02240   0.01183   0.0176  0.0232  0.1000  -4.0886   0.0000   0.2188
   7.900   0.7643   0.02270   0.01218   0.0181  0.0227  0.1000  -4.1598   0.0000   0.2183
   8.000   0.7718   0.02300   0.01252   0.0186  0.0223  0.1000  -4.2325   0.0000   0.2178
   8.100   0.7792   0.02330   0.01286   0.0191  0.0219  0.1000  -4.3070   0.0000   0.2173
   8.200   0.7866   0.02359   0.01319   0.0196  0.0215  0.1000  -4.3843   0.0000   0.2168
   8.300   0.7939   0.02389   0.01352   0.0201  0.0212  0.1000  -4.4659   0.0000   0.2163
   8.400   0.8010   0.02421   0.01386   0.0206  0.0209  0.1000  -4.5481   0.0000   0.2157
   8.500   0.8079   0.02454   0.01422   0.0212  0.0207  0.1000  -4.6294   0.0000   0.2152
   8.600   0.8149   0.02491   0.01465   0.0217  0.0204  0.1000  -4.7019   0.0000   0.2146
   8.700   0.8219   0.02529   0.01509   0.0223  0.0201  0.1000  -4.7744   0.0000   0.2141
   8.800   0.8288   0.02568   0.01554   0.0228  0.0199  0.1000  -4.8472   0.0000   0.2135
   8.900   0.8356   0.02608   0.01600   0.0234  0.0197  0.1000  -4.9207   0.0000   0.2130
   9.000   0.8425   0.02648   0.01645   0.0239  0.0194  0.1000  -4.9952   0.0000   0.2125
   9.100   0.8493   0.02688   0.01690   0.0244  0.0192  0.1000  -5.0716   0.0000   0.2120
   9.200   0.8561   0.02727   0.01735   0.0250  0.0189  0.1000  -5.1537   0.0000   0.2115
   9.300   0.8628   0.02766   0.01779   0.0255  0.0187  0.1000  -5.2374   0.0000   0.2110
   9.400   0.8693   0.02804   0.01821   0.0260  0.0185  0.1000  -5.3226   0.0000   0.2105
   9.500   0.8757   0.02842   0.01863   0.0266  0.0183  0.1000  -5.4090   0.0000   0.2100
   9.600   0.8820   0.02880   0.01904   0.0271  0.0181  0.1000  -5.4962   0.0000   0.2095
   9.700   0.8879   0.02920   0.01947   0.0277  0.0179  0.1000  -5.5827   0.0000   0.2089
   9.800   0.8939   0.02971   0.02006   0.0283  0.0177  0.1000  -5.6539   0.0000   0.2083
   9.900   0.8997   0.03024   0.02069   0.0289  0.0175  0.1000  -5.7222   0.0000   0.2077
  10.000   0.9052   0.03079   0.02133   0.0296  0.0173  0.1000  -5.7897   0.0000   0.2070
  10.100   0.9104   0.03135   0.02198   0.0303  0.0171  0.1000  -5.8560   0.0000   0.2064
  10.200   0.9153   0.03191   0.02263   0.0310  0.0170  0.1000  -5.9216   0.0000   0.2057
  10.300   0.9199   0.03247   0.02328   0.0317  0.0168  0.1000  -5.9897   0.0000   0.2049
  10.400   0.9243   0.03304   0.02392   0.0324  0.0166  0.1000  -6.0598   0.0000   0.2042
  10.500   0.9285   0.03360   0.02457   0.0332  0.0165  0.1000  -6.1305   0.0000   0.2034
  10.600   0.9325   0.03416   0.02520   0.0339  0.0163  0.1000  -6.2022   0.0000   0.2027
  10.700   0.9363   0.03472   0.02583   0.0346  0.0162  0.1000  -6.2748   0.0000   0.2019
  10.800   0.9400   0.03527   0.02644   0.0353  0.0160  0.1000  -6.3485   0.0000   0.2012
  10.900   0.9434   0.03581   0.02704   0.0360  0.0159  0.1000  -6.4230   0.0000   0.2005
  11.000   0.9467   0.03635   0.02764   0.0366  0.0158  0.1000  -6.4982   0.0000   0.1997
  11.100   0.9498   0.03690   0.02824   0.0373  0.0157  0.1000  -6.5737   0.0000   0.1990
  11.200   0.9527   0.03747   0.02885   0.0379  0.0156  0.1000  -6.6488   0.0000   0.1983
  11.300   0.9549   0.03817   0.02962   0.0386  0.0154  0.1000  -6.7086   0.0000   0.1976
  11.400   0.9551   0.03917   0.03077   0.0394  0.0153  0.1000  -6.7333   0.0000   0.1966
  11.500   0.9549   0.04017   0.03191   0.0401  0.0152  0.1000  -6.7573   0.0000   0.1957
  11.600   0.9543   0.04120   0.03307   0.0409  0.0151  0.1000  -6.7797   0.0000   0.1948
  11.700   0.9532   0.04227   0.03427   0.0415  0.0150  0.1000  -6.7990   0.0000   0.1939
  11.800   0.9516   0.04337   0.03549   0.0421  0.0149  0.1000  -6.8150   0.0000   0.1930
  11.900   0.9494   0.04452   0.03676   0.0427  0.0148  0.1000  -6.8278   0.0000   0.1922
  12.000   0.9468   0.04571   0.03806   0.0431  0.0147  0.1000  -6.8378   0.0000   0.1914
  12.100   0.9438   0.04694   0.03941   0.0435  0.0146  0.1000  -6.8450   0.0000   0.1907
  12.200   0.9405   0.04823   0.04079   0.0438  0.0146  0.1000  -6.8513   0.0000   0.1901
  12.300   0.9367   0.04957   0.04223   0.0440  0.0145  0.1000  -6.8558   0.0000   0.1895
  12.400   0.9326   0.05096   0.04373   0.0441  0.0144  0.1000  -6.8572   0.0000   0.1890
  12.500   0.9282   0.05242   0.04528   0.0440  0.0144  0.1000  -6.8555   0.0000   0.1887
  12.600   0.9235   0.05396   0.04691   0.0439  0.0143  0.1000  -6.8503   0.0000   0.1884
  12.700   0.9184   0.05558   0.04862   0.0436  0.0143  0.1000  -6.8410   0.0000   0.1882
  12.800   0.9129   0.05729   0.05043   0.0432  0.0142  0.1000  -6.8270   0.0000   0.1882
  12.900   0.9069   0.05912   0.05234   0.0427  0.0142  0.1000  -6.8075   0.0000   0.1883
  13.000   0.9005   0.06107   0.05438   0.0420  0.0141  0.1000  -6.7815   0.0000   0.1885
  13.100   0.8935   0.06317   0.05657   0.0411  0.0141  0.1000  -6.7475   0.0000   0.1889
  13.200   0.8858   0.06546   0.05894   0.0400  0.0141  0.1000  -6.7038   0.0000   0.1895
  13.300   0.8773   0.06796   0.06153   0.0387  0.0141  0.1000  -6.6481   0.0000   0.1903
  13.400   0.8678   0.07075   0.06440   0.0372  0.0141  0.1000  -6.5774   0.0000   0.1914
  13.500   0.8570   0.07388   0.06762   0.0353  0.0141  0.1000  -6.4874   0.0000   0.1928
  13.600   0.8446   0.07749   0.07132   0.0330  0.0142  0.1000  -6.3721   0.0000   0.1947
  13.700   0.8302   0.08173   0.07565   0.0302  0.0142  0.1000  -6.2226   0.0000   0.1973
  13.800   0.8130   0.08692   0.08093   0.0267  0.0144  0.1000  -6.0245   0.0000   0.2007
  13.900   0.7916   0.09364   0.08773   0.0221  0.0145  0.1000  -5.7461   0.0000   0.2055
  14.000   0.7593   0.10426   0.09842   0.0153  0.0149  0.1000  -5.2463   0.0000   0.2134
  14.100   0.7086   0.12134   0.11544   0.0066  0.0152  0.1000  -4.2750   0.0000   0.2247
  14.200   0.6939   0.12770   0.12176   0.0036  0.0151  0.1000  -3.9491   0.0000   0.2290
  14.300   0.6858   0.13219   0.12622   0.0014  0.0150  0.1000  -3.7509   0.0000   0.2321
  14.400   0.6805   0.13586   0.12987  -0.0003  0.0149  0.1000  -3.6067   0.0000   0.2347
  14.500   0.6771   0.13901   0.13300  -0.0019  0.0148  0.1000  -3.4964   0.0000   0.2369
  14.600   0.6749   0.14180   0.13578  -0.0033  0.0147  0.1000  -3.4102   0.0000   0.2389
  14.700   0.6736   0.14433   0.13830  -0.0045  0.0146  0.1000  -3.3413   0.0000   0.2407
  14.800   0.6729   0.14668   0.14065  -0.0057  0.0145  0.1000  -3.2833   0.0000   0.2424
  14.900   0.6725   0.14896   0.14292  -0.0069  0.0144  0.1000  -3.2291   0.0000   0.2440
  15.000   0.6724   0.15116   0.14512  -0.0080  0.0143  0.1000  -3.1784   0.0000   0.2456
  15.100   0.6726   0.15329   0.14724  -0.0090  0.0143  0.1000  -3.1320   0.0000   0.2471
  15.200   0.6731   0.15532   0.14927  -0.0101  0.0142  0.1000  -3.0911   0.0000   0.2485
  15.300   0.6739   0.15727   0.15121  -0.0110  0.0142  0.1000  -3.0565   0.0000   0.2499
  15.400   0.6750   0.15912   0.15307  -0.0120  0.0141  0.1000  -3.0289   0.0000   0.2511
  15.500   0.6764   0.16085   0.15480  -0.0129  0.0140  0.1000  -3.0091   0.0000   0.2524
  15.600   0.6782   0.16247   0.15642  -0.0138  0.0138  0.1000  -2.9986   0.0000   0.2535
  15.700   0.6802   0.16396   0.15791  -0.0146  0.0137  0.1000  -2.9978   0.0000   0.2545
  15.800   0.6825   0.16532   0.15928  -0.0154  0.0136  0.1000  -3.0077   0.0000   0.2554
  15.900   0.6852   0.16655   0.16051  -0.0161  0.0135  0.1000  -3.0291   0.0000   0.2562
  16.000   0.6881   0.16768   0.16165  -0.0167  0.0134  0.1000  -3.0605   0.0000   0.2569
  16.100   0.6885   0.16994   0.16389  -0.0179  0.0133  0.1000  -2.9915   0.0000   0.2585
  16.200   0.6892   0.17212   0.16607  -0.0190  0.0132  0.1000  -2.9287   0.0000   0.2600
  16.300   0.6905   0.17402   0.16797  -0.0200  0.0131  0.1000  -2.8883   0.0000   0.2613
  16.400   0.6919   0.17586   0.16981  -0.0210  0.0131  0.1000  -2.8520   0.0000   0.2625
  16.500   0.6935   0.17766   0.17161  -0.0219  0.0131  0.1000  -2.8167   0.0000   0.2637
  16.600   0.6950   0.17948   0.17343  -0.0229  0.0130  0.1000  -2.7788   0.0000   0.2650
  16.700   0.6966   0.18129   0.17524  -0.0239  0.0130  0.1000  -2.7411   0.0000   0.2662
  16.800   0.6983   0.18306   0.17701  -0.0249  0.0129  0.1000  -2.7058   0.0000   0.2674
  16.900   0.7001   0.18476   0.17871  -0.0258  0.0127  0.1000  -2.6750   0.0000   0.2686
  17.000   0.7022   0.18640   0.18035  -0.0267  0.0126  0.1000  -2.6499   0.0000   0.2697
  17.100   0.7044   0.18796   0.18192  -0.0276  0.0125  0.1000  -2.6304   0.0000   0.2707
  17.200   0.7067   0.18947   0.18343  -0.0285  0.0123  0.1000  -2.6152   0.0000   0.2717
  17.300   0.7091   0.19096   0.18492  -0.0293  0.0122  0.1000  -2.6012   0.0000   0.2726
  17.400   0.7115   0.19247   0.18643  -0.0302  0.0122  0.1000  -2.5841   0.0000   0.2736
  17.500   0.7139   0.19399   0.18795  -0.0310  0.0122  0.1000  -2.5641   0.0000   0.2745
  17.600   0.7163   0.19550   0.18947  -0.0319  0.0122  0.1000  -2.5438   0.0000   0.2754
  17.700   0.7188   0.19701   0.19098  -0.0328  0.0122  0.1000  -2.5237   0.0000   0.2764
  17.800   0.7213   0.19848   0.19246  -0.0336  0.0122  0.1000  -2.5098   0.0000   0.2773
  17.900   0.7239   0.19992   0.19390  -0.0345  0.0121  0.1000  -2.4991   0.0000   0.2781
  18.000   0.7266   0.20132   0.19530  -0.0353  0.0121  0.1000  -2.4921   0.0000   0.2790
  18.100   0.7294   0.20266   0.19665  -0.0361  0.0120  0.1000  -2.4900   0.0000   0.2797
  18.200   0.7323   0.20392   0.19792  -0.0369  0.0119  0.1000  -2.4944   0.0000   0.2805
  18.300   0.7354   0.20509   0.19909  -0.0376  0.0118  0.1000  -2.5072   0.0000   0.2811
  18.400   0.7386   0.20619   0.20020  -0.0383  0.0116  0.1000  -2.5317   0.0000   0.2817
  18.500   0.7422   0.20708   0.20110  -0.0389  0.0115  0.1000  -2.5763   0.0000   0.2821
  18.600   0.7442   0.20886   0.20287  -0.0400  0.0114  0.1000  -2.5257   0.0000   0.2832
  18.700   0.7467   0.21042   0.20443  -0.0409  0.0113  0.1000  -2.4959   0.0000   0.2842
  18.800   0.7494   0.21182   0.20584  -0.0417  0.0113  0.1000  -2.4819   0.0000   0.2850
  18.900   0.7523   0.21316   0.20719  -0.0426  0.0113  0.1000  -2.4731   0.0000   0.2857
  19.000   0.7552   0.21448   0.20851  -0.0434  0.0114  0.1000  -2.4671   0.0000   0.2864
  19.100   0.7582   0.21575   0.20979  -0.0441  0.0114  0.1000  -2.4653   0.0000   0.2871
  19.200   0.7613   0.21695   0.21099  -0.0449  0.0115  0.1000  -2.4694   0.0000   0.2877


