xflr5 v6.11

 Calculated polar for: NACA 63012 AIRFOIL

 1 1 Reynolds number fixed          Mach number fixed         

 xtrf =   0.050 (top)        0.100 (bottom)
 Mach =   0.250     Re =     0.500 e 6     Ncrit =   4.000

  alpha     CL        CD       CDp       Cm    Top Xtr Bot Xtr   Cpmin    Chinge    XCp    
 ------- -------- --------- --------- -------- ------- ------- -------- --------- ---------
  -2.000  -0.2224   0.01221   0.00223  -0.0015  0.0500  0.1000  -0.6519   0.0000   0.2393
  -1.900  -0.2114   0.01220   0.00221  -0.0014  0.0500  0.1000  -0.6197   0.0000   0.2394
  -1.800  -0.2004   0.01219   0.00218  -0.0013  0.0500  0.1000  -0.5880   0.0000   0.2395
  -1.700  -0.1893   0.01218   0.00216  -0.0012  0.0500  0.1000  -0.5582   0.0000   0.2397
  -1.600  -0.1783   0.01217   0.00214  -0.0011  0.0500  0.1000  -0.5287   0.0000   0.2398
  -1.500  -0.1673   0.01216   0.00211  -0.0010  0.0500  0.1000  -0.5044   0.0000   0.2400
  -1.400  -0.1562   0.01215   0.00210  -0.0009  0.0500  0.1000  -0.4876   0.0000   0.2401
  -1.300  -0.1452   0.01215   0.00208  -0.0008  0.0500  0.1000  -0.4745   0.0000   0.2403
  -1.200  -0.1341   0.01214   0.00206  -0.0008  0.0500  0.1000  -0.4613   0.0000   0.2405
  -1.100  -0.1231   0.01214   0.00205  -0.0007  0.0500  0.1000  -0.4483   0.0000   0.2407
  -1.000  -0.1121   0.01213   0.00203  -0.0006  0.0500  0.1000  -0.4352   0.0000   0.2409
  -0.900  -0.1010   0.01213   0.00202  -0.0005  0.0500  0.1000  -0.4241   0.0000   0.2412
  -0.800  -0.0900   0.01213   0.00201  -0.0004  0.0500  0.1000  -0.4173   0.0000   0.2415
  -0.700  -0.0789   0.01212   0.00200  -0.0003  0.0500  0.1000  -0.4106   0.0000   0.2419
  -0.600  -0.0679   0.01212   0.00199  -0.0003  0.0500  0.1000  -0.4039   0.0000   0.2425
  -0.500  -0.0568   0.01212   0.00199  -0.0002  0.0500  0.1000  -0.3973   0.0000   0.2433
  -0.400  -0.0458   0.01212   0.00198  -0.0001  0.0500  0.1000  -0.3907   0.0000   0.2444
  -0.300  -0.0347   0.01213   0.00198  -0.0000  0.0500  0.1000  -0.3841   0.0000   0.2462
  -0.200  -0.0237   0.01213   0.00198   0.0001  0.0500  0.1000  -0.3775   0.0000   0.2497
  -0.100  -0.0127   0.01213   0.00198   0.0002  0.0500  0.1000  -0.3710   0.0000   0.2592
   0.000  -0.0016   0.01214   0.00198   0.0002  0.0500  0.1000  -0.3646   0.0000   0.3984
   0.100   0.0094   0.01214   0.00198   0.0003  0.0500  0.1000  -0.3701   0.0000   0.2111
   0.200   0.0205   0.01215   0.00199   0.0004  0.0500  0.1000  -0.3766   0.0000   0.2260
   0.300   0.0315   0.01215   0.00199   0.0005  0.0500  0.1000  -0.3832   0.0000   0.2304
   0.400   0.0425   0.01216   0.00200   0.0006  0.0500  0.1000  -0.3898   0.0000   0.2325
   0.500   0.0536   0.01217   0.00201   0.0007  0.0500  0.1000  -0.3964   0.0000   0.2338
   0.600   0.0646   0.01218   0.00202   0.0007  0.0500  0.1000  -0.4030   0.0000   0.2346
   0.700   0.0756   0.01219   0.00203   0.0008  0.0500  0.1000  -0.4097   0.0000   0.2351
   0.800   0.0866   0.01220   0.00204   0.0009  0.0500  0.1000  -0.4165   0.0000   0.2355
   0.900   0.0977   0.01221   0.00205   0.0010  0.0500  0.1000  -0.4233   0.0000   0.2358
   1.000   0.1087   0.01222   0.00207   0.0011  0.0500  0.1000  -0.4301   0.0000   0.2361
   1.100   0.1197   0.01224   0.00209   0.0012  0.0500  0.1000  -0.4381   0.0000   0.2362
   1.200   0.1307   0.01225   0.00211   0.0013  0.0500  0.1000  -0.4479   0.0000   0.2364
   1.300   0.1417   0.01226   0.00213   0.0014  0.0500  0.1000  -0.4651   0.0000   0.2365
   1.400   0.1527   0.01228   0.00215   0.0015  0.0500  0.1000  -0.4837   0.0000   0.2365
   1.500   0.1637   0.01230   0.00217   0.0015  0.0500  0.1000  -0.5029   0.0000   0.2366
   1.600   0.1747   0.01231   0.00220   0.0016  0.0500  0.1000  -0.5238   0.0000   0.2366
   1.700   0.1857   0.01233   0.00222   0.0017  0.0500  0.1000  -0.5527   0.0000   0.2367
   1.800   0.1967   0.01235   0.00225   0.0018  0.0500  0.1000  -0.5824   0.0000   0.2367
   1.900   0.2077   0.01237   0.00228   0.0019  0.0500  0.1000  -0.6136   0.0000   0.2367
   2.000   0.2187   0.01239   0.00231   0.0020  0.0500  0.1000  -0.6457   0.0000   0.2367
   2.100   0.2297   0.01242   0.00234   0.0021  0.0500  0.1000  -0.6781   0.0000   0.2366
   2.200   0.2406   0.01244   0.00238   0.0022  0.0500  0.1000  -0.7152   0.0000   0.2366
   2.300   0.2516   0.01246   0.00241   0.0023  0.0500  0.1000  -0.7651   0.0000   0.2366
   2.400   0.2626   0.01249   0.00245   0.0024  0.0500  0.1000  -0.8158   0.0000   0.2365
   2.500   0.2735   0.01251   0.00249   0.0025  0.0500  0.1000  -0.8671   0.0000   0.2365
   2.600   0.2845   0.01254   0.00253   0.0027  0.0500  0.1000  -0.9191   0.0000   0.2364
   2.700   0.2954   0.01257   0.00257   0.0028  0.0500  0.1000  -0.9719   0.0000   0.2363
   2.800   0.3063   0.01260   0.00262   0.0029  0.0500  0.1000  -1.0253   0.0000   0.2362
   2.900   0.3172   0.01263   0.00266   0.0030  0.0500  0.1000  -1.0794   0.0000   0.2362
   3.000   0.3282   0.01266   0.00271   0.0031  0.0500  0.1000  -1.1342   0.0000   0.2361
   3.100   0.3391   0.01269   0.00276   0.0032  0.0500  0.1000  -1.1897   0.0000   0.2360
   3.200   0.3500   0.01273   0.00282   0.0034  0.0500  0.1000  -1.2459   0.0000   0.2359
   3.300   0.3609   0.01276   0.00287   0.0035  0.0500  0.1000  -1.3027   0.0000   0.2358
   3.400   0.3717   0.01280   0.00292   0.0036  0.0500  0.1000  -1.3602   0.0000   0.2357
   3.500   0.3826   0.01284   0.00298   0.0038  0.0500  0.1000  -1.4183   0.0000   0.2355
   3.600   0.3935   0.01287   0.00304   0.0039  0.0500  0.1000  -1.4771   0.0000   0.2354
   3.700   0.4043   0.01291   0.00311   0.0040  0.0500  0.1000  -1.5375   0.0000   0.2353
   3.800   0.4152   0.01296   0.00317   0.0042  0.0500  0.1000  -1.6011   0.0000   0.2351
   3.900   0.4260   0.01300   0.00324   0.0043  0.0500  0.1000  -1.6653   0.0000   0.2350
   4.000   0.4368   0.01304   0.00331   0.0045  0.0500  0.1000  -1.7302   0.0000   0.2349
   4.100   0.4476   0.01309   0.00338   0.0046  0.0500  0.1000  -1.7957   0.0000   0.2347
   4.200   0.4584   0.01314   0.00346   0.0048  0.0500  0.1000  -1.8619   0.0000   0.2345
   4.300   0.4691   0.01319   0.00353   0.0050  0.0500  0.1000  -1.9286   0.0000   0.2344
   4.400   0.4799   0.01324   0.00362   0.0051  0.0500  0.1000  -1.9958   0.0000   0.2342
   4.500   0.4906   0.01329   0.00370   0.0053  0.0500  0.1000  -2.0635   0.0000   0.2340
   4.600   0.5013   0.01335   0.00379   0.0055  0.0500  0.1000  -2.1316   0.0000   0.2338
   4.700   0.5115   0.01345   0.00390   0.0057  0.0467  0.1000  -2.1990   0.0000   0.2335
   4.800   0.5217   0.01356   0.00400   0.0060  0.0427  0.1000  -2.2670   0.0000   0.2331
   4.900   0.5318   0.01366   0.00412   0.0063  0.0395  0.1000  -2.3355   0.0000   0.2328
   5.000   0.5418   0.01378   0.00423   0.0065  0.0365  0.1000  -2.4044   0.0000   0.2324
   5.100   0.5520   0.01388   0.00435   0.0068  0.0340  0.1000  -2.4741   0.0000   0.2321
   5.200   0.5620   0.01400   0.00447   0.0071  0.0316  0.1000  -2.5440   0.0000   0.2317
   5.300   0.5721   0.01411   0.00459   0.0073  0.0297  0.1000  -2.6146   0.0000   0.2314
   5.400   0.5821   0.01423   0.00472   0.0076  0.0279  0.1000  -2.6856   0.0000   0.2311
   5.500   0.5921   0.01434   0.00485   0.0079  0.0264  0.1000  -2.7607   0.0000   0.2307
   5.600   0.6021   0.01445   0.00499   0.0082  0.0251  0.1000  -2.8373   0.0000   0.2304
   5.700   0.6120   0.01458   0.00513   0.0085  0.0239  0.1000  -2.9141   0.0000   0.2300
   5.800   0.6220   0.01470   0.00527   0.0088  0.0229  0.1000  -2.9913   0.0000   0.2297
   5.900   0.6319   0.01482   0.00541   0.0092  0.0220  0.1000  -3.0690   0.0000   0.2293
   6.000   0.6416   0.01496   0.00557   0.0095  0.0212  0.1000  -3.1474   0.0000   0.2289
   6.100   0.6513   0.01510   0.00573   0.0098  0.0205  0.1000  -3.2260   0.0000   0.2285
   6.200   0.6611   0.01523   0.00589   0.0102  0.0199  0.1000  -3.3044   0.0000   0.2282
   6.300   0.6709   0.01537   0.00605   0.0105  0.0192  0.1000  -3.3839   0.0000   0.2278
   6.400   0.6805   0.01551   0.00622   0.0109  0.0187  0.1000  -3.4646   0.0000   0.2274
   6.500   0.6900   0.01566   0.00639   0.0113  0.0182  0.1000  -3.5462   0.0000   0.2270
   6.600   0.6994   0.01582   0.00657   0.0116  0.0177  0.1000  -3.6322   0.0000   0.2265
   6.700   0.7089   0.01597   0.00676   0.0120  0.0173  0.1000  -3.7179   0.0000   0.2261
   6.800   0.7183   0.01613   0.00695   0.0124  0.0169  0.1000  -3.8044   0.0000   0.2257
   6.900   0.7276   0.01630   0.00715   0.0128  0.0165  0.1000  -3.8915   0.0000   0.2252
   7.000   0.7368   0.01647   0.00735   0.0133  0.0162  0.1000  -3.9793   0.0000   0.2248
   7.100   0.7459   0.01665   0.00756   0.0137  0.0160  0.1000  -4.0678   0.0000   0.2243
   7.200   0.7549   0.01684   0.00777   0.0142  0.0157  0.1000  -4.1569   0.0000   0.2238
   7.300   0.7637   0.01704   0.00800   0.0146  0.0155  0.1000  -4.2455   0.0000   0.2233
   7.400   0.7725   0.01724   0.00823   0.0151  0.0153  0.1000  -4.3317   0.0000   0.2228
   7.500   0.7813   0.01744   0.00848   0.0156  0.0151  0.1000  -4.4232   0.0000   0.2223
   7.600   0.7899   0.01765   0.00873   0.0161  0.0149  0.1000  -4.5157   0.0000   0.2217
   7.700   0.7984   0.01787   0.00898   0.0167  0.0146  0.1000  -4.6090   0.0000   0.2212
   7.800   0.8069   0.01808   0.00924   0.0172  0.0144  0.1000  -4.7035   0.0000   0.2207
   7.900   0.8153   0.01830   0.00949   0.0177  0.0142  0.1000  -4.7991   0.0000   0.2201
   8.000   0.8237   0.01853   0.00975   0.0183  0.0140  0.1000  -4.8959   0.0000   0.2196
   8.100   0.8319   0.01876   0.01001   0.0188  0.0138  0.1000  -4.9936   0.0000   0.2190
   8.200   0.8400   0.01899   0.01028   0.0194  0.0136  0.1000  -5.0914   0.0000   0.2184
   8.300   0.8478   0.01925   0.01057   0.0200  0.0135  0.1000  -5.1888   0.0000   0.2178
   8.400   0.8553   0.01952   0.01087   0.0207  0.0133  0.1000  -5.2885   0.0000   0.2171
   8.500   0.8628   0.01980   0.01120   0.0213  0.0132  0.1000  -5.3842   0.0000   0.2165
   8.600   0.8701   0.02009   0.01154   0.0220  0.0131  0.1000  -5.4795   0.0000   0.2158
   8.700   0.8773   0.02038   0.01189   0.0227  0.0129  0.1000  -5.5746   0.0000   0.2150
   8.800   0.8843   0.02069   0.01225   0.0234  0.0128  0.1000  -5.6700   0.0000   0.2143
   8.900   0.8913   0.02100   0.01261   0.0242  0.0126  0.1000  -5.7660   0.0000   0.2136
   9.000   0.8981   0.02131   0.01297   0.0249  0.0125  0.1000  -5.8630   0.0000   0.2129
   9.100   0.9049   0.02162   0.01333   0.0256  0.0123  0.1000  -5.9609   0.0000   0.2121
   9.200   0.9115   0.02193   0.01369   0.0264  0.0122  0.1000  -6.0597   0.0000   0.2114
   9.300   0.9177   0.02224   0.01405   0.0272  0.0120  0.1000  -6.1595   0.0000   0.2106
   9.400   0.9234   0.02254   0.01439   0.0281  0.0119  0.1000  -6.2605   0.0000   0.2096
   9.500   0.9287   0.02284   0.01474   0.0291  0.0118  0.1000  -6.3602   0.0000   0.2087
   9.600   0.9336   0.02316   0.01509   0.0301  0.0117  0.1000  -6.4586   0.0000   0.2076
   9.700   0.9385   0.02350   0.01547   0.0310  0.0116  0.1000  -6.5563   0.0000   0.2066
   9.800   0.9432   0.02387   0.01588   0.0320  0.0115  0.1000  -6.6535   0.0000   0.2056
   9.900   0.9478   0.02428   0.01634   0.0329  0.0115  0.1000  -6.7470   0.0000   0.2047
  10.000   0.9523   0.02474   0.01688   0.0339  0.0114  0.1000  -6.8315   0.0000   0.2037
  10.100   0.9567   0.02523   0.01745   0.0348  0.0113  0.1000  -6.9150   0.0000   0.2027
  10.200   0.9609   0.02573   0.01803   0.0358  0.0111  0.1000  -6.9979   0.0000   0.2018
  10.300   0.9649   0.02624   0.01862   0.0367  0.0110  0.1000  -7.0805   0.0000   0.2009
  10.400   0.9688   0.02677   0.01923   0.0375  0.0109  0.1000  -7.1632   0.0000   0.2000
  10.500   0.9725   0.02731   0.01984   0.0384  0.0108  0.1000  -7.2460   0.0000   0.1991
  10.600   0.9761   0.02785   0.02046   0.0393  0.0106  0.1000  -7.3300   0.0000   0.1982
  10.700   0.9794   0.02840   0.02108   0.0401  0.0105  0.1000  -7.4178   0.0000   0.1973
  10.800   0.9826   0.02897   0.02172   0.0409  0.0104  0.1000  -7.5052   0.0000   0.1965
  11.000   0.9882   0.03015   0.02304   0.0424  0.0102  0.1000  -7.6769   0.0000   0.1949
  11.100   0.9906   0.03078   0.02373   0.0432  0.0102  0.1000  -7.7601   0.0000   0.1941
  11.200   0.9927   0.03143   0.02445   0.0439  0.0101  0.1000  -7.8408   0.0000   0.1933
  11.300   0.9945   0.03211   0.02519   0.0445  0.0100  0.1000  -7.9200   0.0000   0.1925
  11.400   0.9962   0.03281   0.02595   0.0452  0.0100  0.1000  -7.9983   0.0000   0.1918
  11.500   0.9975   0.03354   0.02674   0.0458  0.0099  0.1000  -8.0754   0.0000   0.1911
  11.600   0.9987   0.03429   0.02755   0.0463  0.0099  0.1000  -8.1506   0.0000   0.1904
  11.700   0.9994   0.03509   0.02840   0.0468  0.0098  0.1000  -8.2233   0.0000   0.1898
  11.800   0.9978   0.03620   0.02963   0.0474  0.0097  0.1000  -8.2496   0.0000   0.1890
  11.900   0.9956   0.03739   0.03094   0.0478  0.0097  0.1000  -8.2682   0.0000   0.1882
  12.000   0.9929   0.03865   0.03230   0.0482  0.0096  0.1000  -8.2831   0.0000   0.1875
  12.100   0.9898   0.03995   0.03372   0.0485  0.0095  0.1000  -8.2949   0.0000   0.1869
  12.200   0.9864   0.04132   0.03518   0.0487  0.0094  0.1000  -8.3040   0.0000   0.1863
  12.300   0.9826   0.04274   0.03670   0.0488  0.0094  0.1000  -8.3104   0.0000   0.1859
  12.400   0.9786   0.04422   0.03827   0.0488  0.0093  0.1000  -8.3142   0.0000   0.1855
  12.500   0.9743   0.04577   0.03991   0.0486  0.0092  0.1000  -8.3148   0.0000   0.1852
  12.600   0.9697   0.04739   0.04162   0.0484  0.0092  0.1000  -8.3121   0.0000   0.1851
  12.700   0.9648   0.04910   0.04341   0.0480  0.0092  0.1000  -8.3052   0.0000   0.1850
  12.800   0.9595   0.05089   0.04528   0.0475  0.0091  0.1000  -8.2938   0.0000   0.1851
  12.900   0.9540   0.05278   0.04725   0.0468  0.0091  0.1000  -8.2778   0.0000   0.1852
  13.000   0.9481   0.05477   0.04932   0.0460  0.0090  0.1000  -8.2567   0.0000   0.1856
  13.100   0.9419   0.05687   0.05149   0.0451  0.0090  0.1000  -8.2299   0.0000   0.1860
  13.200   0.9354   0.05909   0.05378   0.0440  0.0090  0.1000  -8.1969   0.0000   0.1866
  13.300   0.9285   0.06145   0.05620   0.0428  0.0090  0.1000  -8.1571   0.0000   0.1874
  13.400   0.9212   0.06395   0.05877   0.0414  0.0090  0.1000  -8.1097   0.0000   0.1884
  13.500   0.9136   0.06661   0.06149   0.0398  0.0090  0.1000  -8.0540   0.0000   0.1895
  13.600   0.9055   0.06945   0.06440   0.0381  0.0090  0.1000  -7.9891   0.0000   0.1908
  13.700   0.8970   0.07249   0.06750   0.0361  0.0090  0.1000  -7.9131   0.0000   0.1924
  13.800   0.8880   0.07576   0.07082   0.0340  0.0090  0.1000  -7.8244   0.0000   0.1942
  13.900   0.8785   0.07929   0.07441   0.0317  0.0090  0.1000  -7.7208   0.0000   0.1963
  14.000   0.8683   0.08313   0.07831   0.0291  0.0091  0.1000  -7.5993   0.0000   0.1986
  14.100   0.8573   0.08735   0.08258   0.0264  0.0091  0.1000  -7.4535   0.0000   0.2013
  14.200   0.8449   0.09203   0.08731   0.0234  0.0092  0.1000  -7.2744   0.0000   0.2043
  14.300   0.8310   0.09725   0.09257   0.0203  0.0093  0.1000  -7.0525   0.0000   0.2076
  14.400   0.8144   0.10312   0.09848   0.0169  0.0094  0.1000  -6.7695   0.0000   0.2112
  14.500   0.7930   0.11016   0.10553   0.0131  0.0095  0.1000  -6.3777   0.0000   0.2156
  14.700   0.6934   0.13927   0.13451  -0.0014  0.0091  0.1000  -4.1441   0.0000   0.2353
  14.800   0.6901   0.14230   0.13752  -0.0029  0.0090  0.1000  -4.0230   0.0000   0.2374
  14.900   0.6884   0.14488   0.14010  -0.0043  0.0089  0.1000  -3.9435   0.0000   0.2393
  15.000   0.6876   0.14725   0.14246  -0.0055  0.0088  0.1000  -3.8821   0.0000   0.2410
  15.100   0.6874   0.14943   0.14464  -0.0066  0.0087  0.1000  -3.8355   0.0000   0.2425
  15.200   0.6878   0.15145   0.14666  -0.0076  0.0086  0.1000  -3.8021   0.0000   0.2440
  15.300   0.6887   0.15333   0.14854  -0.0086  0.0086  0.1000  -3.7803   0.0000   0.2453
  15.400   0.6900   0.15507   0.15028  -0.0096  0.0085  0.1000  -3.7711   0.0000   0.2465
  15.500   0.6917   0.15669   0.15191  -0.0105  0.0084  0.1000  -3.7730   0.0000   0.2476
  15.600   0.6936   0.15827   0.15348  -0.0113  0.0084  0.1000  -3.7814   0.0000   0.2487
  15.700   0.6956   0.15977   0.15498  -0.0122  0.0083  0.1000  -3.7927   0.0000   0.2498
  15.800   0.6887   0.16469   0.15988  -0.0144  0.0080  0.1000  -3.4488   0.0000   0.2532
  15.900   0.6889   0.16704   0.16222  -0.0155  0.0078  0.1000  -3.3677   0.0000   0.2548
  16.000   0.6900   0.16904   0.16423  -0.0165  0.0077  0.1000  -3.3205   0.0000   0.2562
  16.100   0.6915   0.17090   0.16608  -0.0175  0.0076  0.1000  -3.2864   0.0000   0.2574
  16.200   0.6932   0.17267   0.16786  -0.0184  0.0075  0.1000  -3.2589   0.0000   0.2586
  16.300   0.6951   0.17437   0.16956  -0.0193  0.0074  0.1000  -3.2384   0.0000   0.2597
  16.400   0.6972   0.17600   0.17119  -0.0202  0.0073  0.1000  -3.2274   0.0000   0.2608
  16.500   0.6995   0.17755   0.17274  -0.0211  0.0073  0.1000  -3.2240   0.0000   0.2618
  16.600   0.7021   0.17902   0.17421  -0.0219  0.0072  0.1000  -3.2292   0.0000   0.2627
  16.700   0.7048   0.18040   0.17560  -0.0227  0.0071  0.1000  -3.2431   0.0000   0.2636
  16.800   0.7076   0.18176   0.17696  -0.0235  0.0071  0.1000  -3.2631   0.0000   0.2645
  16.900   0.7106   0.18303   0.17824  -0.0243  0.0070  0.1000  -3.2901   0.0000   0.2653
  17.000   0.7102   0.18593   0.18112  -0.0256  0.0068  0.1000  -3.1324   0.0000   0.2672
  17.100   0.7114   0.18810   0.18329  -0.0267  0.0066  0.1000  -3.0537   0.0000   0.2686
  17.200   0.7134   0.18991   0.18511  -0.0277  0.0065  0.1000  -3.0124   0.0000   0.2697
  17.300   0.7157   0.19160   0.18680  -0.0286  0.0064  0.1000  -2.9846   0.0000   0.2708
  17.400   0.7181   0.19323   0.18844  -0.0295  0.0063  0.1000  -2.9622   0.0000   0.2717
  17.500   0.7206   0.19482   0.19002  -0.0304  0.0062  0.1000  -2.9447   0.0000   0.2727
  17.600   0.7232   0.19635   0.19156  -0.0313  0.0062  0.1000  -2.9315   0.0000   0.2736
  17.700   0.7259   0.19785   0.19306  -0.0321  0.0061  0.1000  -2.9220   0.0000   0.2745
  17.800   0.7288   0.19929   0.19451  -0.0330  0.0061  0.1000  -2.9185   0.0000   0.2754
  17.900   0.7317   0.20066   0.19589  -0.0338  0.0060  0.1000  -2.9229   0.0000   0.2762
  18.000   0.7348   0.20197   0.19719  -0.0346  0.0059  0.1000  -2.9358   0.0000   0.2769


