xflr5 v6.11

 Calculated polar for: NACA 63012 AIRFOIL

 1 1 Reynolds number fixed          Mach number fixed         

 xtrf =   0.050 (top)        0.100 (bottom)
 Mach =   0.300     Re =     0.600 e 6     Ncrit =   2.000

  alpha     CL        CD       CDp       Cm    Top Xtr Bot Xtr   Cpmin    Chinge    XCp    
 ------- -------- --------- --------- -------- ------- ------- -------- --------- ---------
  -2.000  -0.2267   0.01176   0.00219  -0.0015  0.0500  0.1000  -0.6651   0.0000   0.2394
  -1.900  -0.2154   0.01175   0.00217  -0.0014  0.0500  0.1000  -0.6321   0.0000   0.2395
  -1.800  -0.2042   0.01174   0.00214  -0.0013  0.0500  0.1000  -0.5995   0.0000   0.2396
  -1.700  -0.1930   0.01173   0.00212  -0.0012  0.0500  0.1000  -0.5689   0.0000   0.2398
  -1.600  -0.1817   0.01172   0.00210  -0.0011  0.0500  0.1000  -0.5387   0.0000   0.2399
  -1.500  -0.1705   0.01172   0.00208  -0.0010  0.0500  0.1000  -0.5136   0.0000   0.2401
  -1.400  -0.1592   0.01171   0.00206  -0.0009  0.0500  0.1000  -0.4964   0.0000   0.2402
  -1.300  -0.1480   0.01170   0.00204  -0.0008  0.0500  0.1000  -0.4827   0.0000   0.2404
  -1.200  -0.1367   0.01170   0.00202  -0.0008  0.0500  0.1000  -0.4693   0.0000   0.2406
  -1.100  -0.1254   0.01169   0.00201  -0.0007  0.0500  0.1000  -0.4560   0.0000   0.2408
  -1.000  -0.1142   0.01169   0.00200  -0.0006  0.0500  0.1000  -0.4427   0.0000   0.2411
  -0.900  -0.1029   0.01169   0.00199  -0.0005  0.0500  0.1000  -0.4324   0.0000   0.2414
  -0.800  -0.0917   0.01168   0.00198  -0.0004  0.0500  0.1000  -0.4255   0.0000   0.2417
  -0.700  -0.0804   0.01168   0.00197  -0.0003  0.0500  0.1000  -0.4186   0.0000   0.2421
  -0.600  -0.0692   0.01168   0.00196  -0.0002  0.0500  0.1000  -0.4117   0.0000   0.2427
  -0.500  -0.0579   0.01168   0.00195  -0.0002  0.0500  0.1000  -0.4050   0.0000   0.2435
  -0.400  -0.0467   0.01168   0.00195  -0.0001  0.0500  0.1000  -0.3982   0.0000   0.2447
  -0.300  -0.0354   0.01168   0.00195   0.0000  0.0500  0.1000  -0.3915   0.0000   0.2465
  -0.200  -0.0242   0.01169   0.00195   0.0001  0.0500  0.1000  -0.3847   0.0000   0.2502
  -0.100  -0.0129   0.01169   0.00195   0.0002  0.0500  0.1000  -0.3781   0.0000   0.2600
   0.000  -0.0017   0.01169   0.00195   0.0003  0.0500  0.1000  -0.3715   0.0000   0.4013
   0.100   0.0096   0.01170   0.00195   0.0003  0.0500  0.1000  -0.3771   0.0000   0.2099
   0.200   0.0208   0.01170   0.00195   0.0004  0.0500  0.1000  -0.3838   0.0000   0.2255
   0.300   0.0320   0.01171   0.00196   0.0005  0.0500  0.1000  -0.3905   0.0000   0.2301
   0.400   0.0433   0.01172   0.00197   0.0006  0.0500  0.1000  -0.3972   0.0000   0.2323
   0.500   0.0545   0.01173   0.00197   0.0007  0.0500  0.1000  -0.4040   0.0000   0.2336
   0.600   0.0658   0.01173   0.00198   0.0008  0.0500  0.1000  -0.4107   0.0000   0.2345
   0.700   0.0770   0.01174   0.00199   0.0009  0.0500  0.1000  -0.4176   0.0000   0.2350
   0.800   0.0882   0.01175   0.00201   0.0009  0.0500  0.1000  -0.4245   0.0000   0.2355
   0.900   0.0995   0.01177   0.00202   0.0010  0.0500  0.1000  -0.4314   0.0000   0.2358
   1.000   0.1107   0.01178   0.00204   0.0011  0.0500  0.1000  -0.4384   0.0000   0.2360
   1.100   0.1219   0.01179   0.00205   0.0012  0.0500  0.1000  -0.4455   0.0000   0.2362
   1.200   0.1331   0.01180   0.00207   0.0013  0.0500  0.1000  -0.4556   0.0000   0.2363
   1.300   0.1443   0.01182   0.00209   0.0014  0.0500  0.1000  -0.4733   0.0000   0.2364
   1.400   0.1556   0.01183   0.00211   0.0015  0.0500  0.1000  -0.4928   0.0000   0.2365
   1.500   0.1668   0.01185   0.00213   0.0016  0.0500  0.1000  -0.5125   0.0000   0.2366
   1.600   0.1780   0.01187   0.00216   0.0017  0.0500  0.1000  -0.5334   0.0000   0.2366
   1.700   0.1892   0.01189   0.00218   0.0018  0.0500  0.1000  -0.5632   0.0000   0.2366
   1.800   0.2004   0.01190   0.00221   0.0019  0.0500  0.1000  -0.5936   0.0000   0.2366
   1.900   0.2116   0.01192   0.00224   0.0020  0.0500  0.1000  -0.6256   0.0000   0.2366
   2.000   0.2228   0.01195   0.00227   0.0021  0.0500  0.1000  -0.6586   0.0000   0.2366
   2.100   0.2340   0.01197   0.00230   0.0022  0.0500  0.1000  -0.6918   0.0000   0.2366
   2.200   0.2452   0.01199   0.00233   0.0023  0.0500  0.1000  -0.7312   0.0000   0.2365
   2.300   0.2564   0.01201   0.00237   0.0024  0.0500  0.1000  -0.7825   0.0000   0.2365
   2.400   0.2675   0.01204   0.00241   0.0025  0.0500  0.1000  -0.8345   0.0000   0.2364
   2.500   0.2787   0.01206   0.00244   0.0026  0.0500  0.1000  -0.8873   0.0000   0.2364
   2.600   0.2899   0.01209   0.00248   0.0027  0.0500  0.1000  -0.9409   0.0000   0.2363
   2.700   0.3010   0.01212   0.00253   0.0029  0.0500  0.1000  -0.9953   0.0000   0.2362
   2.800   0.3122   0.01215   0.00257   0.0030  0.0500  0.1000  -1.0504   0.0000   0.2361
   2.900   0.3233   0.01218   0.00261   0.0031  0.0500  0.1000  -1.1062   0.0000   0.2360
   3.000   0.3345   0.01221   0.00266   0.0032  0.0500  0.1000  -1.1628   0.0000   0.2359
   3.100   0.3456   0.01224   0.00271   0.0034  0.0500  0.1000  -1.2202   0.0000   0.2358
   3.200   0.3567   0.01227   0.00276   0.0035  0.0500  0.1000  -1.2782   0.0000   0.2357
   3.300   0.3678   0.01231   0.00281   0.0036  0.0500  0.1000  -1.3371   0.0000   0.2356
   3.400   0.3790   0.01234   0.00287   0.0038  0.0500  0.1000  -1.3966   0.0000   0.2355
   3.500   0.3901   0.01238   0.00292   0.0039  0.0500  0.1000  -1.4569   0.0000   0.2353
   3.600   0.4011   0.01242   0.00299   0.0041  0.0500  0.1000  -1.5178   0.0000   0.2352
   3.700   0.4122   0.01246   0.00305   0.0042  0.0500  0.1000  -1.5814   0.0000   0.2351
   3.800   0.4233   0.01250   0.00311   0.0044  0.0500  0.1000  -1.6474   0.0000   0.2349
   3.900   0.4338   0.01259   0.00319   0.0046  0.0450  0.1000  -1.7127   0.0000   0.2346
   4.000   0.4442   0.01269   0.00328   0.0048  0.0393  0.1000  -1.7784   0.0000   0.2342
   4.100   0.4546   0.01279   0.00337   0.0051  0.0347  0.1000  -1.8452   0.0000   0.2338
   4.200   0.4651   0.01288   0.00346   0.0053  0.0314  0.1000  -1.9131   0.0000   0.2335
   4.300   0.4757   0.01296   0.00355   0.0056  0.0289  0.1000  -1.9821   0.0000   0.2332
   4.400   0.4863   0.01305   0.00364   0.0058  0.0270  0.1000  -2.0518   0.0000   0.2329
   4.500   0.4969   0.01313   0.00373   0.0060  0.0252  0.1000  -2.1225   0.0000   0.2326
   4.600   0.5075   0.01321   0.00383   0.0063  0.0237  0.1000  -2.1938   0.0000   0.2323
   4.700   0.5181   0.01329   0.00392   0.0065  0.0223  0.1000  -2.2661   0.0000   0.2321
   4.800   0.5287   0.01338   0.00402   0.0068  0.0209  0.1000  -2.3391   0.0000   0.2318
   4.900   0.5392   0.01347   0.00413   0.0070  0.0197  0.1000  -2.4128   0.0000   0.2315
   5.000   0.5497   0.01356   0.00423   0.0073  0.0186  0.1000  -2.4874   0.0000   0.2312
   5.100   0.5602   0.01366   0.00434   0.0076  0.0176  0.1000  -2.5627   0.0000   0.2309
   5.200   0.5706   0.01375   0.00445   0.0078  0.0167  0.1000  -2.6388   0.0000   0.2306
   5.300   0.5811   0.01385   0.00457   0.0081  0.0160  0.1000  -2.7156   0.0000   0.2302
   5.400   0.5914   0.01395   0.00468   0.0084  0.0155  0.1000  -2.7931   0.0000   0.2299
   5.500   0.6019   0.01405   0.00481   0.0087  0.0150  0.1000  -2.8715   0.0000   0.2296
   5.600   0.6122   0.01415   0.00493   0.0090  0.0145  0.1000  -2.9549   0.0000   0.2293
   5.700   0.6226   0.01425   0.00506   0.0093  0.0141  0.1000  -3.0393   0.0000   0.2290
   5.800   0.6328   0.01436   0.00519   0.0096  0.0138  0.1000  -3.1244   0.0000   0.2286
   5.900   0.6430   0.01448   0.00533   0.0100  0.0134  0.1000  -3.2103   0.0000   0.2282
   6.000   0.6532   0.01459   0.00547   0.0103  0.0132  0.1000  -3.2969   0.0000   0.2279
   6.100   0.6634   0.01471   0.00561   0.0106  0.0129  0.1000  -3.3841   0.0000   0.2275
   6.200   0.6735   0.01483   0.00576   0.0110  0.0126  0.1000  -3.4722   0.0000   0.2272
   6.300   0.6835   0.01496   0.00591   0.0114  0.0123  0.1000  -3.5612   0.0000   0.2268
   6.400   0.6935   0.01509   0.00607   0.0117  0.0120  0.1000  -3.6511   0.0000   0.2264
   6.500   0.7034   0.01523   0.00624   0.0121  0.0118  0.1000  -3.7419   0.0000   0.2260
   6.600   0.7132   0.01537   0.00640   0.0125  0.0116  0.1000  -3.8336   0.0000   0.2256
   6.700   0.7231   0.01551   0.00657   0.0129  0.0114  0.1000  -3.9256   0.0000   0.2251
   6.800   0.7328   0.01565   0.00675   0.0133  0.0112  0.1000  -4.0225   0.0000   0.2247
   6.900   0.7425   0.01580   0.00693   0.0138  0.0111  0.1000  -4.1199   0.0000   0.2243
   7.000   0.7522   0.01596   0.00713   0.0142  0.0109  0.1000  -4.2180   0.0000   0.2238
   7.100   0.7617   0.01612   0.00732   0.0147  0.0108  0.1000  -4.3167   0.0000   0.2234
   7.200   0.7712   0.01628   0.00752   0.0151  0.0106  0.1000  -4.4161   0.0000   0.2229
   7.300   0.7806   0.01645   0.00773   0.0156  0.0105  0.1000  -4.5160   0.0000   0.2224
   7.400   0.7899   0.01663   0.00794   0.0161  0.0104  0.1000  -4.6166   0.0000   0.2219
   7.500   0.7991   0.01681   0.00816   0.0166  0.0103  0.1000  -4.7179   0.0000   0.2214
   7.600   0.8082   0.01700   0.00838   0.0171  0.0102  0.1000  -4.8200   0.0000   0.2209
   7.700   0.8172   0.01719   0.00861   0.0177  0.0101  0.1000  -4.9258   0.0000   0.2203
   7.800   0.8261   0.01739   0.00885   0.0182  0.0099  0.1000  -5.0350   0.0000   0.2198
   7.900   0.8349   0.01760   0.00909   0.0188  0.0098  0.1000  -5.1450   0.0000   0.2192
   8.000   0.8436   0.01781   0.00934   0.0194  0.0097  0.1000  -5.2524   0.0000   0.2187
   8.100   0.8522   0.01803   0.00961   0.0200  0.0096  0.1000  -5.3600   0.0000   0.2181
   8.200   0.8606   0.01825   0.00988   0.0206  0.0094  0.1000  -5.4678   0.0000   0.2174
   8.300   0.8689   0.01849   0.01017   0.0213  0.0093  0.1000  -5.5756   0.0000   0.2168
   8.400   0.8770   0.01873   0.01046   0.0219  0.0092  0.1000  -5.6832   0.0000   0.2161
   8.500   0.8850   0.01899   0.01076   0.0226  0.0091  0.1000  -5.7906   0.0000   0.2155
   8.600   0.8928   0.01925   0.01107   0.0233  0.0090  0.1000  -5.9005   0.0000   0.2148
   8.700   0.9004   0.01952   0.01139   0.0241  0.0090  0.1000  -6.0131   0.0000   0.2141
   8.800   0.9078   0.01979   0.01172   0.0248  0.0089  0.1000  -6.1259   0.0000   0.2133
   8.900   0.9152   0.02008   0.01205   0.0256  0.0088  0.1000  -6.2391   0.0000   0.2126
   9.000   0.9223   0.02037   0.01239   0.0264  0.0087  0.1000  -6.3528   0.0000   0.2118
   9.100   0.9294   0.02066   0.01274   0.0272  0.0086  0.1000  -6.4672   0.0000   0.2110
   9.200   0.9359   0.02095   0.01308   0.0281  0.0085  0.1000  -6.5802   0.0000   0.2102
   9.300   0.9419   0.02124   0.01341   0.0290  0.0084  0.1000  -6.6911   0.0000   0.2092
   9.400   0.9475   0.02153   0.01375   0.0301  0.0083  0.1000  -6.8006   0.0000   0.2082
   9.500   0.9522   0.02187   0.01415   0.0312  0.0082  0.1000  -6.8967   0.0000   0.2070
   9.600   0.9569   0.02223   0.01459   0.0323  0.0081  0.1000  -6.9919   0.0000   0.2058
   9.700   0.9616   0.02263   0.01505   0.0334  0.0081  0.1000  -7.0919   0.0000   0.2047
   9.800   0.9663   0.02305   0.01554   0.0345  0.0080  0.1000  -7.1925   0.0000   0.2037
   9.900   0.9708   0.02350   0.01606   0.0355  0.0079  0.1000  -7.2919   0.0000   0.2026
  10.000   0.9751   0.02397   0.01660   0.0365  0.0078  0.1000  -7.3901   0.0000   0.2016
  10.100   0.9792   0.02445   0.01716   0.0375  0.0077  0.1000  -7.4870   0.0000   0.2006
  10.200   0.9832   0.02496   0.01774   0.0385  0.0076  0.1000  -7.5830   0.0000   0.1996
  10.300   0.9870   0.02548   0.01834   0.0395  0.0075  0.1000  -7.6781   0.0000   0.1986
  10.400   0.9905   0.02603   0.01896   0.0404  0.0075  0.1000  -7.7726   0.0000   0.1976
  10.500   0.9939   0.02658   0.01959   0.0414  0.0074  0.1000  -7.8666   0.0000   0.1967
  10.600   0.9972   0.02716   0.02024   0.0423  0.0073  0.1000  -7.9600   0.0000   0.1957
  10.700   1.0002   0.02775   0.02091   0.0432  0.0072  0.1000  -8.0528   0.0000   0.1948
  10.800   1.0029   0.02836   0.02159   0.0440  0.0071  0.1000  -8.1445   0.0000   0.1940
  10.900   1.0055   0.02900   0.02230   0.0448  0.0071  0.1000  -8.2350   0.0000   0.1931
  11.000   1.0077   0.02966   0.02304   0.0456  0.0070  0.1000  -8.3230   0.0000   0.1922
  11.100   1.0074   0.03057   0.02406   0.0465  0.0069  0.1000  -8.3682   0.0000   0.1912
  11.200   1.0067   0.03154   0.02512   0.0473  0.0069  0.1000  -8.4130   0.0000   0.1901
  11.300   1.0055   0.03255   0.02624   0.0481  0.0068  0.1000  -8.4525   0.0000   0.1891
  11.400   1.0037   0.03363   0.02742   0.0488  0.0067  0.1000  -8.4858   0.0000   0.1882
  11.500   1.0014   0.03478   0.02867   0.0494  0.0067  0.1000  -8.5128   0.0000   0.1873
  11.600   0.9986   0.03599   0.02998   0.0500  0.0066  0.1000  -8.5337   0.0000   0.1864
  11.700   0.9953   0.03727   0.03136   0.0504  0.0065  0.1000  -8.5491   0.0000   0.1856
  11.800   0.9916   0.03862   0.03281   0.0508  0.0065  0.1000  -8.5594   0.0000   0.1849
  11.900   0.9874   0.04004   0.03432   0.0510  0.0064  0.1000  -8.5648   0.0000   0.1843
  12.000   0.9828   0.04153   0.03591   0.0511  0.0064  0.1000  -8.5656   0.0000   0.1837
  12.100   0.9779   0.04310   0.03756   0.0511  0.0063  0.1000  -8.5620   0.0000   0.1833
  12.200   0.9727   0.04474   0.03929   0.0509  0.0063  0.1000  -8.5540   0.0000   0.1830
  12.300   0.9671   0.04647   0.04110   0.0506  0.0062  0.1000  -8.5416   0.0000   0.1828
  12.400   0.9612   0.04829   0.04300   0.0502  0.0062  0.1000  -8.5246   0.0000   0.1827
  12.500   0.9551   0.05020   0.04499   0.0496  0.0062  0.1000  -8.5030   0.0000   0.1828
  12.600   0.9486   0.05221   0.04707   0.0488  0.0062  0.1000  -8.4764   0.0000   0.1830
  12.700   0.9419   0.05433   0.04926   0.0479  0.0061  0.1000  -8.4446   0.0000   0.1834
  12.800   0.9349   0.05656   0.05156   0.0468  0.0061  0.1000  -8.4071   0.0000   0.1840
  12.900   0.9276   0.05892   0.05399   0.0456  0.0061  0.1000  -8.3636   0.0000   0.1847
  13.000   0.9200   0.06141   0.05654   0.0442  0.0061  0.1000  -8.3134   0.0000   0.1856
  13.100   0.9121   0.06405   0.05924   0.0426  0.0061  0.1000  -8.2559   0.0000   0.1867
  13.200   0.9040   0.06686   0.06210   0.0409  0.0061  0.1000  -8.1901   0.0000   0.1881
  13.300   0.8955   0.06985   0.06514   0.0389  0.0061  0.1000  -8.1149   0.0000   0.1896
  13.400   0.8866   0.07305   0.06839   0.0368  0.0061  0.1000  -8.0285   0.0000   0.1914
  13.500   0.8774   0.07649   0.07189   0.0345  0.0062  0.1000  -7.9282   0.0000   0.1935
  13.600   0.8676   0.08023   0.07567   0.0319  0.0062  0.1000  -7.8099   0.0000   0.1958
  13.700   0.8570   0.08437   0.07985   0.0292  0.0063  0.1000  -7.6662   0.0000   0.1984
  13.800   0.8450   0.08900   0.08452   0.0262  0.0063  0.1000  -7.4832   0.0000   0.2014
  13.900   0.8302   0.09437   0.08992   0.0230  0.0064  0.1000  -7.2336   0.0000   0.2047
  14.000   0.8104   0.10078   0.09634   0.0196  0.0065  0.1000  -6.8738   0.0000   0.2083
  14.100   0.7855   0.10801   0.10355   0.0157  0.0066  0.1000  -6.4086   0.0000   0.2126
  14.200   0.7586   0.11575   0.11126   0.0115  0.0066  0.1000  -5.8790   0.0000   0.2176
  14.300   0.7324   0.12366   0.11913   0.0072  0.0066  0.1000  -5.3192   0.0000   0.2231
  14.400   0.7151   0.12979   0.12523   0.0040  0.0065  0.1000  -4.9124   0.0000   0.2275
  14.500   0.7057   0.13417   0.12959   0.0017  0.0063  0.1000  -4.6667   0.0000   0.2307
  14.600   0.7004   0.13760   0.13300  -0.0001  0.0062  0.1000  -4.5083   0.0000   0.2332
  14.700   0.6973   0.14048   0.13587  -0.0016  0.0061  0.1000  -4.3993   0.0000   0.2353
  14.800   0.6956   0.14303   0.13842  -0.0030  0.0060  0.1000  -4.3223   0.0000   0.2372
  14.900   0.6949   0.14533   0.14072  -0.0042  0.0059  0.1000  -4.2676   0.0000   0.2389
  15.000   0.6949   0.14746   0.14284  -0.0053  0.0059  0.1000  -4.2293   0.0000   0.2404
  15.100   0.6954   0.14944   0.14483  -0.0064  0.0058  0.1000  -4.2031   0.0000   0.2418
  15.200   0.6894   0.15351   0.14888  -0.0083  0.0056  0.1000  -3.9499   0.0000   0.2448
  15.300   0.6880   0.15616   0.15152  -0.0097  0.0055  0.1000  -3.8401   0.0000   0.2467
  15.400   0.6878   0.15853   0.15388  -0.0109  0.0053  0.1000  -3.7667   0.0000   0.2484
  15.500   0.6882   0.16071   0.15606  -0.0120  0.0053  0.1000  -3.7111   0.0000   0.2499
  15.600   0.6891   0.16275   0.15810  -0.0130  0.0052  0.1000  -3.6689   0.0000   0.2513
  15.700   0.6904   0.16466   0.16002  -0.0140  0.0051  0.1000  -3.6387   0.0000   0.2526
  15.800   0.6920   0.16647   0.16182  -0.0150  0.0050  0.1000  -3.6191   0.0000   0.2538
  15.900   0.6939   0.16818   0.16354  -0.0159  0.0049  0.1000  -3.6085   0.0000   0.2550
  16.000   0.6960   0.16983   0.16518  -0.0168  0.0048  0.1000  -3.6059   0.0000   0.2561
  16.100   0.6983   0.17140   0.16676  -0.0177  0.0048  0.1000  -3.6097   0.0000   0.2571
  16.200   0.6992   0.17356   0.16891  -0.0188  0.0047  0.1000  -3.5444   0.0000   0.2586
  16.300   0.6998   0.17583   0.17118  -0.0199  0.0045  0.1000  -3.4605   0.0000   0.2601
  16.400   0.7013   0.17776   0.17312  -0.0209  0.0044  0.1000  -3.4138   0.0000   0.2614
  16.500   0.7032   0.17960   0.17495  -0.0219  0.0043  0.1000  -3.3790   0.0000   0.2626
  16.600   0.7052   0.18136   0.17672  -0.0228  0.0043  0.1000  -3.3511   0.0000   0.2637
  16.700   0.7074   0.18307   0.17843  -0.0237  0.0042  0.1000  -3.3289   0.0000   0.2648
  16.800   0.7098   0.18472   0.18009  -0.0246  0.0041  0.1000  -3.3130   0.0000   0.2658
  16.900   0.7123   0.18633   0.18169  -0.0255  0.0041  0.1000  -3.3070   0.0000   0.2668
  17.000   0.7149   0.18787   0.18324  -0.0264  0.0040  0.1000  -3.3069   0.0000   0.2678
  17.100   0.7177   0.18937   0.18474  -0.0273  0.0039  0.1000  -3.3124   0.0000   0.2687
  17.200   0.7205   0.19083   0.18620  -0.0281  0.0039  0.1000  -3.3231   0.0000   0.2696
  17.300   0.7235   0.19224   0.18762  -0.0289  0.0038  0.1000  -3.3384   0.0000   0.2705
  17.400   0.7251   0.19432   0.18970  -0.0300  0.0037  0.1000  -3.2659   0.0000   0.2717
  17.500   0.7272   0.19616   0.19154  -0.0310  0.0036  0.1000  -3.2192   0.0000   0.2728
  17.600   0.7296   0.19787   0.19326  -0.0319  0.0035  0.1000  -3.1922   0.0000   0.2739
  17.700   0.7322   0.19951   0.19489  -0.0328  0.0034  0.1000  -3.1727   0.0000   0.2748
  17.800   0.7350   0.20111   0.19650  -0.0337  0.0034  0.1000  -3.1573   0.0000   0.2757
  17.900   0.7377   0.20267   0.19806  -0.0346  0.0033  0.1000  -3.1453   0.0000   0.2766
  18.000   0.7406   0.20421   0.19960  -0.0354  0.0033  0.1000  -3.1363   0.0000   0.2775
  18.100   0.7435   0.20571   0.20111  -0.0363  0.0032  0.1000  -3.1310   0.0000   0.2784
  18.200   0.7465   0.20718   0.20259  -0.0372  0.0032  0.1000  -3.1300   0.0000   0.2792
  18.300   0.7496   0.20862   0.20403  -0.0380  0.0031  0.1000  -3.1338   0.0000   0.2800
  18.400   0.7527   0.21002   0.20543  -0.0389  0.0031  0.1000  -3.1421   0.0000   0.2808
  18.500   0.7559   0.21139   0.20680  -0.0397  0.0030  0.1000  -3.1550   0.0000   0.2815
  18.600   0.7589   0.21286   0.20828  -0.0406  0.0030  0.1000  -3.1488   0.0000   0.2823
  18.700   0.7612   0.21478   0.21021  -0.0416  0.0029  0.1000  -3.0869   0.0000   0.2834
  18.800   0.7639   0.21646   0.21189  -0.0425  0.0028  0.1000  -3.0573   0.0000   0.2843
  18.900   0.7669   0.21801   0.21344  -0.0434  0.0027  0.1000  -3.0404   0.0000   0.2851
  19.000   0.7698   0.21954   0.21497  -0.0443  0.0027  0.1000  -3.0289   0.0000   0.2859
  19.100   0.7729   0.22105   0.21648  -0.0452  0.0026  0.1000  -3.0202   0.0000   0.2867
  19.200   0.7760   0.22253   0.21797  -0.0461  0.0026  0.1000  -3.0137   0.0000   0.2874
  19.300   0.7791   0.22399   0.21943  -0.0470  0.0025  0.1000  -3.0093   0.0000   0.2882
  19.400   0.7822   0.22544   0.22088  -0.0478  0.0025  0.1000  -3.0067   0.0000   0.2889
  19.500   0.7854   0.22686   0.22232  -0.0487  0.0025  0.1000  -3.0061   0.0000   0.2896
  19.600   0.7886   0.22827   0.22373  -0.0496  0.0024  0.1000  -3.0085   0.0000   0.2903
  19.700   0.7919   0.22965   0.22511  -0.0505  0.0024  0.1000  -3.0146   0.0000   0.2910
  19.800   0.7952   0.23100   0.22647  -0.0513  0.0024  0.1000  -3.0246   0.0000   0.2917
  19.900   0.7985   0.23233   0.22781  -0.0522  0.0023  0.1000  -3.0382   0.0000   0.2923
  20.000   0.8017   0.23376   0.22924  -0.0531  0.0023  0.1000  -3.0328   0.0000   0.2930


