xflr5 v6.11

 Calculated polar for: NACA 63012 AIRFOIL

 1 1 Reynolds number fixed          Mach number fixed         

 xtrf =   0.050 (top)        0.100 (bottom)
 Mach =   0.400     Re =     0.800 e 6     Ncrit =   2.000

  alpha     CL        CD       CDp       Cm    Top Xtr Bot Xtr   Cpmin    Chinge    XCp    
 ------- -------- --------- --------- -------- ------- ------- -------- --------- ---------
  -2.000  -0.2376   0.01115   0.00220  -0.0017  0.0500  0.1000  -0.7002   0.0000   0.2386
  -1.900  -0.2258   0.01114   0.00217  -0.0016  0.0500  0.1000  -0.6650   0.0000   0.2388
  -1.800  -0.2140   0.01113   0.00215  -0.0015  0.0500  0.1000  -0.6303   0.0000   0.2390
  -1.700  -0.2022   0.01112   0.00212  -0.0014  0.0500  0.1000  -0.5978   0.0000   0.2391
  -1.600  -0.1904   0.01111   0.00210  -0.0013  0.0500  0.1000  -0.5657   0.0000   0.2393
  -1.500  -0.1786   0.01110   0.00208  -0.0012  0.0500  0.1000  -0.5390   0.0000   0.2395
  -1.400  -0.1668   0.01110   0.00206  -0.0011  0.0500  0.1000  -0.5213   0.0000   0.2397
  -1.300  -0.1550   0.01109   0.00205  -0.0010  0.0500  0.1000  -0.5063   0.0000   0.2399
  -1.200  -0.1432   0.01108   0.00203  -0.0009  0.0500  0.1000  -0.4915   0.0000   0.2401
  -1.100  -0.1314   0.01108   0.00202  -0.0008  0.0500  0.1000  -0.4772   0.0000   0.2403
  -1.000  -0.1196   0.01108   0.00201  -0.0007  0.0500  0.1000  -0.4631   0.0000   0.2406
  -0.900  -0.1079   0.01107   0.00199  -0.0006  0.0500  0.1000  -0.4544   0.0000   0.2409
  -0.800  -0.0961   0.01107   0.00199  -0.0005  0.0500  0.1000  -0.4471   0.0000   0.2413
  -0.700  -0.0843   0.01107   0.00198  -0.0004  0.0500  0.1000  -0.4398   0.0000   0.2418
  -0.600  -0.0725   0.01107   0.00197  -0.0003  0.0500  0.1000  -0.4326   0.0000   0.2424
  -0.500  -0.0607   0.01107   0.00196  -0.0002  0.0500  0.1000  -0.4254   0.0000   0.2433
  -0.400  -0.0490   0.01107   0.00196  -0.0001  0.0500  0.1000  -0.4183   0.0000   0.2446
  -0.300  -0.0372   0.01107   0.00196   0.0000  0.0500  0.1000  -0.4112   0.0000   0.2466
  -0.200  -0.0254   0.01107   0.00196   0.0001  0.0500  0.1000  -0.4041   0.0000   0.2505
  -0.100  -0.0136   0.01108   0.00196   0.0002  0.0500  0.1000  -0.3971   0.0000   0.2611
   0.000  -0.0019   0.01108   0.00196   0.0003  0.0500  0.1000  -0.3902   0.0000   0.4052
   0.100   0.0099   0.01108   0.00196   0.0004  0.0500  0.1000  -0.3957   0.0000   0.2065
   0.200   0.0217   0.01109   0.00196   0.0005  0.0500  0.1000  -0.4028   0.0000   0.2237
   0.300   0.0334   0.01110   0.00197   0.0006  0.0500  0.1000  -0.4098   0.0000   0.2288
   0.400   0.0452   0.01110   0.00198   0.0007  0.0500  0.1000  -0.4169   0.0000   0.2312
   0.500   0.0570   0.01111   0.00198   0.0008  0.0500  0.1000  -0.4240   0.0000   0.2326
   0.600   0.0687   0.01112   0.00199   0.0009  0.0500  0.1000  -0.4312   0.0000   0.2335
   0.700   0.0805   0.01113   0.00201   0.0010  0.0500  0.1000  -0.4385   0.0000   0.2341
   0.800   0.0922   0.01114   0.00202   0.0011  0.0500  0.1000  -0.4457   0.0000   0.2345
   0.900   0.1040   0.01115   0.00203   0.0012  0.0500  0.1000  -0.4530   0.0000   0.2349
   1.000   0.1158   0.01116   0.00205   0.0013  0.0500  0.1000  -0.4605   0.0000   0.2351
   1.100   0.1275   0.01118   0.00206   0.0014  0.0500  0.1000  -0.4679   0.0000   0.2353
   1.200   0.1393   0.01119   0.00208   0.0015  0.0500  0.1000  -0.4768   0.0000   0.2355
   1.300   0.1510   0.01121   0.00210   0.0016  0.0500  0.1000  -0.4965   0.0000   0.2356
   1.400   0.1628   0.01122   0.00212   0.0017  0.0500  0.1000  -0.5171   0.0000   0.2356
   1.500   0.1745   0.01124   0.00215   0.0018  0.0500  0.1000  -0.5379   0.0000   0.2357
   1.600   0.1862   0.01126   0.00217   0.0019  0.0500  0.1000  -0.5597   0.0000   0.2357
   1.700   0.1980   0.01127   0.00219   0.0020  0.0500  0.1000  -0.5912   0.0000   0.2357
   1.800   0.2097   0.01129   0.00222   0.0021  0.0500  0.1000  -0.6235   0.0000   0.2357
   1.900   0.2215   0.01131   0.00225   0.0023  0.0500  0.1000  -0.6577   0.0000   0.2357
   2.000   0.2332   0.01133   0.00228   0.0024  0.0500  0.1000  -0.6927   0.0000   0.2356
   2.100   0.2449   0.01136   0.00231   0.0025  0.0500  0.1000  -0.7282   0.0000   0.2356
   2.200   0.2567   0.01138   0.00235   0.0026  0.0500  0.1000  -0.7710   0.0000   0.2355
   2.300   0.2684   0.01140   0.00238   0.0028  0.0500  0.1000  -0.8259   0.0000   0.2355
   2.400   0.2801   0.01143   0.00242   0.0029  0.0500  0.1000  -0.8817   0.0000   0.2354
   2.500   0.2918   0.01145   0.00246   0.0031  0.0500  0.1000  -0.9385   0.0000   0.2353
   2.600   0.3036   0.01148   0.00250   0.0032  0.0500  0.1000  -0.9962   0.0000   0.2352
   2.700   0.3153   0.01151   0.00254   0.0033  0.0500  0.1000  -1.0548   0.0000   0.2351
   2.800   0.3270   0.01154   0.00258   0.0035  0.0500  0.1000  -1.1144   0.0000   0.2349
   2.900   0.3387   0.01157   0.00263   0.0036  0.0500  0.1000  -1.1749   0.0000   0.2348
   3.000   0.3504   0.01160   0.00268   0.0038  0.0500  0.1000  -1.2364   0.0000   0.2347
   3.100   0.3621   0.01163   0.00273   0.0040  0.0500  0.1000  -1.2988   0.0000   0.2345
   3.200   0.3738   0.01167   0.00278   0.0041  0.0500  0.1000  -1.3621   0.0000   0.2344
   3.300   0.3855   0.01170   0.00283   0.0043  0.0500  0.1000  -1.4263   0.0000   0.2342
   3.400   0.3972   0.01174   0.00289   0.0045  0.0500  0.1000  -1.4915   0.0000   0.2340
   3.500   0.4088   0.01178   0.00295   0.0047  0.0496  0.1000  -1.5574   0.0000   0.2339
   3.600   0.4196   0.01189   0.00304   0.0050  0.0422  0.1000  -1.6220   0.0000   0.2334
   3.700   0.4305   0.01199   0.00312   0.0053  0.0360  0.1000  -1.6899   0.0000   0.2329
   3.900   0.4527   0.01216   0.00329   0.0059  0.0289  0.1000  -1.8337   0.0000   0.2321
   4.000   0.4639   0.01224   0.00337   0.0061  0.0268  0.1000  -1.9075   0.0000   0.2318
   4.100   0.4752   0.01231   0.00346   0.0064  0.0250  0.1000  -1.9826   0.0000   0.2315
   4.200   0.4864   0.01239   0.00355   0.0067  0.0233  0.1000  -2.0586   0.0000   0.2312
   4.300   0.4976   0.01247   0.00364   0.0070  0.0216  0.1000  -2.1357   0.0000   0.2308
   4.400   0.5088   0.01255   0.00373   0.0073  0.0201  0.1000  -2.2139   0.0000   0.2305
   4.500   0.5199   0.01264   0.00383   0.0076  0.0186  0.1000  -2.2932   0.0000   0.2301
   4.600   0.5310   0.01272   0.00393   0.0079  0.0174  0.1000  -2.3735   0.0000   0.2298
   4.700   0.5421   0.01281   0.00403   0.0082  0.0164  0.1000  -2.4550   0.0000   0.2294
   4.800   0.5532   0.01290   0.00414   0.0085  0.0156  0.1000  -2.5375   0.0000   0.2290
   4.900   0.5643   0.01299   0.00425   0.0089  0.0149  0.1000  -2.6210   0.0000   0.2287
   5.000   0.5754   0.01308   0.00436   0.0092  0.0144  0.1000  -2.7055   0.0000   0.2283
   5.100   0.5864   0.01318   0.00448   0.0096  0.0139  0.1000  -2.7911   0.0000   0.2279
   5.200   0.5974   0.01328   0.00460   0.0100  0.0134  0.1000  -2.8777   0.0000   0.2275
   5.300   0.6083   0.01338   0.00473   0.0103  0.0131  0.1000  -2.9651   0.0000   0.2271
   5.400   0.6193   0.01349   0.00486   0.0107  0.0128  0.1000  -3.0535   0.0000   0.2267
   5.500   0.6302   0.01360   0.00499   0.0111  0.0124  0.1000  -3.1428   0.0000   0.2263
   5.600   0.6410   0.01371   0.00513   0.0115  0.0121  0.1000  -3.2382   0.0000   0.2258
   5.700   0.6517   0.01383   0.00528   0.0120  0.0118  0.1000  -3.3353   0.0000   0.2254
   5.800   0.6624   0.01395   0.00543   0.0124  0.0116  0.1000  -3.4338   0.0000   0.2249
   5.900   0.6731   0.01408   0.00558   0.0129  0.0113  0.1000  -3.5330   0.0000   0.2244
   6.000   0.6837   0.01421   0.00574   0.0134  0.0111  0.1000  -3.6330   0.0000   0.2239
   6.100   0.6942   0.01434   0.00591   0.0139  0.0109  0.1000  -3.7340   0.0000   0.2234
   6.200   0.7047   0.01448   0.00608   0.0144  0.0107  0.1000  -3.8359   0.0000   0.2229
   6.300   0.7151   0.01462   0.00625   0.0149  0.0105  0.1000  -3.9387   0.0000   0.2224
   6.400   0.7254   0.01477   0.00644   0.0154  0.0104  0.1000  -4.0423   0.0000   0.2218
   6.500   0.7356   0.01493   0.00663   0.0160  0.0102  0.1000  -4.1468   0.0000   0.2213
   6.600   0.7457   0.01509   0.00683   0.0166  0.0101  0.1000  -4.2523   0.0000   0.2207
   6.700   0.7557   0.01526   0.00704   0.0172  0.0100  0.1000  -4.3587   0.0000   0.2201
   6.800   0.7656   0.01544   0.00725   0.0178  0.0099  0.1000  -4.4707   0.0000   0.2195
   6.900   0.7754   0.01562   0.00748   0.0184  0.0098  0.1000  -4.5841   0.0000   0.2188
   7.000   0.7850   0.01581   0.00771   0.0191  0.0097  0.1000  -4.6963   0.0000   0.2181
   7.100   0.7945   0.01601   0.00796   0.0198  0.0096  0.1000  -4.8086   0.0000   0.2174
   7.200   0.8039   0.01622   0.00822   0.0205  0.0095  0.1000  -4.9211   0.0000   0.2167
   7.300   0.8131   0.01644   0.00849   0.0213  0.0093  0.1000  -5.0341   0.0000   0.2160
   7.400   0.8221   0.01667   0.00877   0.0220  0.0092  0.1000  -5.1473   0.0000   0.2152
   7.500   0.8309   0.01691   0.00906   0.0228  0.0091  0.1000  -5.2608   0.0000   0.2144
   7.600   0.8396   0.01716   0.00936   0.0237  0.0089  0.1000  -5.3745   0.0000   0.2136
   7.700   0.8480   0.01742   0.00968   0.0245  0.0088  0.1000  -5.4892   0.0000   0.2127
   7.800   0.8562   0.01769   0.01001   0.0254  0.0087  0.1000  -5.6083   0.0000   0.2118
   7.900   0.8642   0.01798   0.01035   0.0264  0.0086  0.1000  -5.7268   0.0000   0.2109
   8.000   0.8719   0.01828   0.01071   0.0273  0.0085  0.1000  -5.8448   0.0000   0.2100
   8.100   0.8794   0.01859   0.01108   0.0283  0.0085  0.1000  -5.9622   0.0000   0.2090
   8.200   0.8867   0.01892   0.01147   0.0293  0.0084  0.1000  -6.0789   0.0000   0.2080
   8.300   0.8933   0.01927   0.01189   0.0304  0.0083  0.1000  -6.1882   0.0000   0.2068
   8.400   0.8986   0.01965   0.01235   0.0317  0.0082  0.1000  -6.2830   0.0000   0.2055
   8.500   0.9031   0.02005   0.01283   0.0331  0.0081  0.1000  -6.3719   0.0000   0.2039
   8.600   0.9072   0.02047   0.01333   0.0346  0.0079  0.1000  -6.4569   0.0000   0.2023
   8.700   0.9112   0.02093   0.01387   0.0360  0.0078  0.1000  -6.5461   0.0000   0.2008
   8.800   0.9153   0.02144   0.01447   0.0374  0.0077  0.1000  -6.6361   0.0000   0.1994
   8.900   0.9192   0.02199   0.01511   0.0387  0.0076  0.1000  -6.7237   0.0000   0.1980
   9.000   0.9228   0.02259   0.01580   0.0400  0.0075  0.1000  -6.8072   0.0000   0.1966
   9.100   0.9261   0.02322   0.01653   0.0413  0.0074  0.1000  -6.8865   0.0000   0.1952
   9.200   0.9290   0.02390   0.01731   0.0425  0.0073  0.1000  -6.9615   0.0000   0.1938
   9.300   0.9314   0.02461   0.01812   0.0438  0.0072  0.1000  -7.0322   0.0000   0.1925
   9.400   0.9335   0.02536   0.01897   0.0450  0.0071  0.1000  -7.1003   0.0000   0.1911
   9.500   0.9352   0.02613   0.01984   0.0462  0.0070  0.1000  -7.1666   0.0000   0.1898
   9.600   0.9351   0.02708   0.02090   0.0475  0.0070  0.1000  -7.2007   0.0000   0.1883
   9.700   0.9326   0.02823   0.02219   0.0487  0.0068  0.1000  -7.1963   0.0000   0.1866
   9.800   0.9295   0.02944   0.02352   0.0500  0.0067  0.1000  -7.1912   0.0000   0.1850
   9.900   0.9258   0.03070   0.02490   0.0511  0.0066  0.1000  -7.1840   0.0000   0.1834
  10.000   0.9215   0.03200   0.02632   0.0521  0.0065  0.1000  -7.1742   0.0000   0.1820
  10.100   0.9168   0.03335   0.02777   0.0529  0.0064  0.1000  -7.1621   0.0000   0.1806
  10.200   0.9118   0.03475   0.02927   0.0536  0.0064  0.1000  -7.1476   0.0000   0.1793
  10.300   0.9063   0.03620   0.03082   0.0542  0.0063  0.1000  -7.1305   0.0000   0.1781
  10.400   0.9005   0.03771   0.03242   0.0546  0.0063  0.1000  -7.1109   0.0000   0.1771
  10.500   0.8944   0.03928   0.03408   0.0548  0.0062  0.1000  -7.0888   0.0000   0.1763
  10.600   0.8881   0.04093   0.03581   0.0549  0.0062  0.1000  -7.0646   0.0000   0.1756
  10.700   0.8816   0.04264   0.03760   0.0548  0.0062  0.1000  -7.0385   0.0000   0.1750
  10.800   0.8749   0.04443   0.03946   0.0545  0.0061  0.1000  -7.0102   0.0000   0.1747
  10.900   0.8681   0.04629   0.04139   0.0541  0.0061  0.1000  -6.9801   0.0000   0.1745
  11.000   0.8612   0.04824   0.04341   0.0535  0.0061  0.1000  -6.9479   0.0000   0.1745
  11.100   0.8542   0.05027   0.04550   0.0527  0.0061  0.1000  -6.9137   0.0000   0.1747
  11.200   0.8471   0.05240   0.04769   0.0517  0.0061  0.1000  -6.8770   0.0000   0.1752
  11.300   0.8399   0.05462   0.04997   0.0506  0.0061  0.1000  -6.8378   0.0000   0.1758
  11.400   0.8327   0.05695   0.05235   0.0493  0.0061  0.1000  -6.7956   0.0000   0.1767
  11.500   0.8255   0.05938   0.05483   0.0478  0.0061  0.1000  -6.7501   0.0000   0.1777
  11.600   0.8182   0.06194   0.05744   0.0461  0.0061  0.1000  -6.7006   0.0000   0.1790
  11.700   0.8108   0.06464   0.06018   0.0443  0.0061  0.1000  -6.6463   0.0000   0.1806
  11.800   0.8035   0.06748   0.06306   0.0424  0.0061  0.1000  -6.5861   0.0000   0.1824
  11.900   0.7960   0.07049   0.06610   0.0403  0.0061  0.1000  -6.5181   0.0000   0.1844
  12.000   0.7884   0.07369   0.06935   0.0380  0.0061  0.1000  -6.4397   0.0000   0.1866
  12.100   0.7805   0.07715   0.07284   0.0356  0.0061  0.1000  -6.3461   0.0000   0.1892
  12.200   0.7721   0.08094   0.07665   0.0330  0.0062  0.1000  -6.2278   0.0000   0.1919
  12.300   0.7621   0.08520   0.08093   0.0304  0.0062  0.1000  -6.0620   0.0000   0.1947
  12.400   0.7498   0.08992   0.08566   0.0279  0.0063  0.1000  -5.8339   0.0000   0.1974
  12.500   0.7396   0.09397   0.08969   0.0257  0.0063  0.1000  -5.6575   0.0000   0.2000
  12.600   0.7304   0.09773   0.09344   0.0235  0.0063  0.1000  -5.5000   0.0000   0.2024
  12.700   0.7219   0.10134   0.09703   0.0215  0.0063  0.1000  -5.3509   0.0000   0.2048
  12.800   0.7141   0.10484   0.10052   0.0195  0.0063  0.1000  -5.2076   0.0000   0.2072
  12.900   0.7068   0.10824   0.10390   0.0176  0.0063  0.1000  -5.0697   0.0000   0.2096
  13.000   0.7003   0.11154   0.10719   0.0158  0.0062  0.1000  -4.9381   0.0000   0.2119
  13.100   0.6945   0.11472   0.11036   0.0140  0.0062  0.1000  -4.8143   0.0000   0.2142
  13.200   0.6895   0.11779   0.11342   0.0123  0.0062  0.1000  -4.6995   0.0000   0.2165
  13.300   0.6853   0.12072   0.11635   0.0107  0.0061  0.1000  -4.5947   0.0000   0.2186
  13.400   0.6818   0.12353   0.11915   0.0092  0.0061  0.1000  -4.5005   0.0000   0.2207
  13.500   0.6791   0.12621   0.12182   0.0078  0.0060  0.1000  -4.4177   0.0000   0.2227
  13.600   0.6771   0.12875   0.12436   0.0064  0.0060  0.1000  -4.3466   0.0000   0.2246
  13.700   0.6757   0.13117   0.12677   0.0051  0.0059  0.1000  -4.2870   0.0000   0.2264
  13.800   0.6749   0.13348   0.12907   0.0039  0.0059  0.1000  -4.2384   0.0000   0.2281
  13.900   0.6746   0.13570   0.13129   0.0027  0.0058  0.1000  -4.1988   0.0000   0.2297
  14.000   0.6706   0.13893   0.13451   0.0011  0.0057  0.1000  -4.0425   0.0000   0.2322
  14.100   0.6682   0.14178   0.13735  -0.0004  0.0055  0.1000  -3.9270   0.0000   0.2343
  14.200   0.6671   0.14432   0.13989  -0.0017  0.0054  0.1000  -3.8411   0.0000   0.2362
  14.300   0.6669   0.14669   0.14226  -0.0029  0.0053  0.1000  -3.7758   0.0000   0.2380
  14.400   0.6672   0.14891   0.14448  -0.0041  0.0052  0.1000  -3.7248   0.0000   0.2396
  14.500   0.6679   0.15103   0.14660  -0.0051  0.0051  0.1000  -3.6831   0.0000   0.2411
  14.600   0.6690   0.15308   0.14864  -0.0062  0.0051  0.1000  -3.6486   0.0000   0.2426
  14.700   0.6703   0.15506   0.15063  -0.0072  0.0050  0.1000  -3.6208   0.0000   0.2440
  14.800   0.6718   0.15698   0.15254  -0.0082  0.0049  0.1000  -3.5988   0.0000   0.2453
  14.900   0.6736   0.15883   0.15440  -0.0092  0.0049  0.1000  -3.5834   0.0000   0.2466
  15.000   0.6757   0.16063   0.15619  -0.0101  0.0048  0.1000  -3.5748   0.0000   0.2479
  15.100   0.6779   0.16236   0.15793  -0.0110  0.0048  0.1000  -3.5726   0.0000   0.2491
  15.200   0.6783   0.16476   0.16033  -0.0122  0.0046  0.1000  -3.4836   0.0000   0.2507
  15.300   0.6794   0.16696   0.16252  -0.0133  0.0045  0.1000  -3.4228   0.0000   0.2522
  15.400   0.6810   0.16897   0.16454  -0.0143  0.0044  0.1000  -3.3824   0.0000   0.2536
  15.500   0.6829   0.17090   0.16647  -0.0153  0.0043  0.1000  -3.3545   0.0000   0.2549
  15.600   0.6851   0.17276   0.16832  -0.0163  0.0042  0.1000  -3.3349   0.0000   0.2561
  15.700   0.6874   0.17455   0.17012  -0.0172  0.0041  0.1000  -3.3201   0.0000   0.2573
  15.800   0.6899   0.17631   0.17188  -0.0182  0.0040  0.1000  -3.3092   0.0000   0.2584
  15.900   0.6925   0.17804   0.17361  -0.0191  0.0040  0.1000  -3.3023   0.0000   0.2596
  16.000   0.6952   0.17974   0.17531  -0.0200  0.0039  0.1000  -3.2988   0.0000   0.2606
  16.100   0.6980   0.18140   0.17698  -0.0209  0.0039  0.1000  -3.2988   0.0000   0.2617
  16.200   0.7009   0.18303   0.17861  -0.0218  0.0039  0.1000  -3.3033   0.0000   0.2627
  16.300   0.7037   0.18474   0.18032  -0.0227  0.0038  0.1000  -3.2949   0.0000   0.2638
  16.400   0.7056   0.18682   0.18240  -0.0237  0.0037  0.1000  -3.2354   0.0000   0.2650
  16.500   0.7079   0.18877   0.18435  -0.0247  0.0036  0.1000  -3.1919   0.0000   0.2662
  16.600   0.7104   0.19062   0.18620  -0.0257  0.0035  0.1000  -3.1618   0.0000   0.2674
  16.700   0.7132   0.19237   0.18796  -0.0266  0.0034  0.1000  -3.1437   0.0000   0.2684
  16.800   0.7161   0.19408   0.18968  -0.0275  0.0033  0.1000  -3.1358   0.0000   0.2694
  16.900   0.7191   0.19577   0.19137  -0.0284  0.0032  0.1000  -3.1316   0.0000   0.2704
  17.000   0.7221   0.19743   0.19302  -0.0293  0.0032  0.1000  -3.1297   0.0000   0.2714
  17.100   0.7253   0.19906   0.19466  -0.0302  0.0031  0.1000  -3.1307   0.0000   0.2723
  17.200   0.7285   0.20068   0.19628  -0.0311  0.0031  0.1000  -3.1343   0.0000   0.2732
  17.300   0.7317   0.20227   0.19788  -0.0320  0.0031  0.1000  -3.1405   0.0000   0.2741
  17.400   0.7350   0.20385   0.19946  -0.0329  0.0030  0.1000  -3.1492   0.0000   0.2750
  17.500   0.7382   0.20546   0.20107  -0.0338  0.0030  0.1000  -3.1503   0.0000   0.2758
  17.600   0.7409   0.20739   0.20300  -0.0348  0.0029  0.1000  -3.1075   0.0000   0.2769
  17.700   0.7438   0.20926   0.20487  -0.0358  0.0028  0.1000  -3.0712   0.0000   0.2779
  17.800   0.7468   0.21106   0.20668  -0.0367  0.0028  0.1000  -3.0442   0.0000   0.2789
  17.900   0.7499   0.21279   0.20842  -0.0376  0.0027  0.1000  -3.0260   0.0000   0.2798
  18.000   0.7531   0.21447   0.21010  -0.0386  0.0026  0.1000  -3.0151   0.0000   0.2806
  18.100   0.7564   0.21612   0.21175  -0.0395  0.0025  0.1000  -3.0096   0.0000   0.2815
  18.200   0.7597   0.21774   0.21337  -0.0404  0.0025  0.1000  -3.0072   0.0000   0.2823
  18.300   0.7631   0.21934   0.21498  -0.0413  0.0024  0.1000  -3.0059   0.0000   0.2831
  18.400   0.7665   0.22092   0.21656  -0.0422  0.0024  0.1000  -3.0075   0.0000   0.2839
  18.500   0.7700   0.22251   0.21816  -0.0431  0.0024  0.1000  -3.0156   0.0000   0.2847
  18.600   0.7734   0.22407   0.21972  -0.0440  0.0023  0.1000  -3.0257   0.0000   0.2854
  18.700   0.7770   0.22562   0.22127  -0.0449  0.0023  0.1000  -3.0378   0.0000   0.2862
  18.800   0.7803   0.22731   0.22297  -0.0458  0.0023  0.1000  -3.0269   0.0000   0.2870
  18.900   0.7835   0.22908   0.22474  -0.0468  0.0022  0.1000  -3.0005   0.0000   0.2879
  19.000   0.7867   0.23087   0.22654  -0.0477  0.0022  0.1000  -2.9753   0.0000   0.2887
  19.100   0.7900   0.23263   0.22830  -0.0487  0.0021  0.1000  -2.9528   0.0000   0.2895
  19.200   0.7933   0.23435   0.23003  -0.0496  0.0021  0.1000  -2.9353   0.0000   0.2903
  19.300   0.7967   0.23605   0.23172  -0.0505  0.0020  0.1000  -2.9237   0.0000   0.2911
  19.400   0.8002   0.23770   0.23338  -0.0515  0.0020  0.1000  -2.9178   0.0000   0.2918
  19.500   0.8037   0.23930   0.23499  -0.0524  0.0019  0.1000  -2.9166   0.0000   0.2925
  19.600   0.8072   0.24092   0.23661  -0.0533  0.0019  0.1000  -2.9185   0.0000   0.2932
  19.700   0.8108   0.24248   0.23818  -0.0542  0.0018  0.1000  -2.9216   0.0000   0.2939
  19.800   0.8144   0.24407   0.23977  -0.0551  0.0018  0.1000  -2.9250   0.0000   0.2946
  19.900   0.8179   0.24567   0.24137  -0.0561  0.0018  0.1000  -2.9302   0.0000   0.2952
  20.000   0.8215   0.24723   0.24294  -0.0570  0.0017  0.1000  -2.9371   0.0000   0.2959


