xflr5 v6.11

 Calculated polar for: NACA 63012 AIRFOIL

 1 1 Reynolds number fixed          Mach number fixed         

 xtrf =   0.050 (top)        0.100 (bottom)
 Mach =   0.350     Re =     0.700 e 6     Ncrit =   2.000

  alpha     CL        CD       CDp       Cm    Top Xtr Bot Xtr   Cpmin    Chinge    XCp    
 ------- -------- --------- --------- -------- ------- ------- -------- --------- ---------
  -2.000  -0.2317   0.01142   0.00218  -0.0016  0.0500  0.1000  -0.6810   0.0000   0.2391
  -1.900  -0.2202   0.01141   0.00215  -0.0015  0.0500  0.1000  -0.6470   0.0000   0.2393
  -1.800  -0.2087   0.01140   0.00213  -0.0014  0.0500  0.1000  -0.6134   0.0000   0.2394
  -1.700  -0.1972   0.01139   0.00211  -0.0013  0.0500  0.1000  -0.5820   0.0000   0.2396
  -1.600  -0.1857   0.01138   0.00209  -0.0012  0.0500  0.1000  -0.5509   0.0000   0.2397
  -1.500  -0.1742   0.01137   0.00207  -0.0011  0.0500  0.1000  -0.5250   0.0000   0.2399
  -1.400  -0.1627   0.01137   0.00205  -0.0010  0.0500  0.1000  -0.5076   0.0000   0.2401
  -1.300  -0.1512   0.01136   0.00203  -0.0009  0.0500  0.1000  -0.4932   0.0000   0.2403
  -1.200  -0.1397   0.01135   0.00202  -0.0008  0.0500  0.1000  -0.4793   0.0000   0.2405
  -1.100  -0.1282   0.01135   0.00200  -0.0007  0.0500  0.1000  -0.4656   0.0000   0.2407
  -1.000  -0.1167   0.01135   0.00199  -0.0006  0.0500  0.1000  -0.4520   0.0000   0.2410
  -0.900  -0.1052   0.01134   0.00198  -0.0005  0.0500  0.1000  -0.4424   0.0000   0.2413
  -0.800  -0.0937   0.01134   0.00197  -0.0004  0.0500  0.1000  -0.4353   0.0000   0.2416
  -0.700  -0.0822   0.01134   0.00196  -0.0003  0.0500  0.1000  -0.4282   0.0000   0.2421
  -0.600  -0.0707   0.01134   0.00195  -0.0003  0.0500  0.1000  -0.4212   0.0000   0.2427
  -0.500  -0.0592   0.01134   0.00195  -0.0002  0.0500  0.1000  -0.4142   0.0000   0.2435
  -0.400  -0.0477   0.01134   0.00194  -0.0001  0.0500  0.1000  -0.4073   0.0000   0.2447
  -0.300  -0.0362   0.01134   0.00194   0.0000  0.0500  0.1000  -0.4004   0.0000   0.2467
  -0.200  -0.0248   0.01134   0.00194   0.0001  0.0500  0.1000  -0.3936   0.0000   0.2504
  -0.100  -0.0133   0.01135   0.00194   0.0002  0.0500  0.1000  -0.3867   0.0000   0.2607
   0.000  -0.0018   0.01135   0.00194   0.0003  0.0500  0.1000  -0.3800   0.0000   0.4035
   0.100   0.0097   0.01136   0.00194   0.0004  0.0500  0.1000  -0.3855   0.0000   0.2084
   0.200   0.0212   0.01136   0.00195   0.0005  0.0500  0.1000  -0.3924   0.0000   0.2247
   0.300   0.0327   0.01137   0.00195   0.0005  0.0500  0.1000  -0.3992   0.0000   0.2296
   0.400   0.0442   0.01137   0.00196   0.0006  0.0500  0.1000  -0.4061   0.0000   0.2319
   0.500   0.0556   0.01138   0.00197   0.0007  0.0500  0.1000  -0.4130   0.0000   0.2332
   0.600   0.0671   0.01139   0.00198   0.0008  0.0500  0.1000  -0.4200   0.0000   0.2341
   0.700   0.0786   0.01140   0.00199   0.0009  0.0500  0.1000  -0.4271   0.0000   0.2347
   0.800   0.0901   0.01141   0.00200   0.0010  0.0500  0.1000  -0.4341   0.0000   0.2351
   0.900   0.1015   0.01142   0.00201   0.0011  0.0500  0.1000  -0.4412   0.0000   0.2355
   1.000   0.1130   0.01143   0.00203   0.0012  0.0500  0.1000  -0.4484   0.0000   0.2357
   1.100   0.1245   0.01145   0.00205   0.0013  0.0500  0.1000  -0.4556   0.0000   0.2359
   1.200   0.1359   0.01146   0.00206   0.0014  0.0500  0.1000  -0.4652   0.0000   0.2360
   1.300   0.1474   0.01148   0.00208   0.0015  0.0500  0.1000  -0.4838   0.0000   0.2361
   1.400   0.1589   0.01149   0.00210   0.0016  0.0500  0.1000  -0.5039   0.0000   0.2362
   1.500   0.1703   0.01151   0.00213   0.0017  0.0500  0.1000  -0.5240   0.0000   0.2363
   1.600   0.1818   0.01152   0.00215   0.0018  0.0500  0.1000  -0.5453   0.0000   0.2363
   1.700   0.1932   0.01154   0.00217   0.0019  0.0500  0.1000  -0.5759   0.0000   0.2363
   1.800   0.2047   0.01156   0.00220   0.0020  0.0500  0.1000  -0.6071   0.0000   0.2363
   1.900   0.2161   0.01158   0.00223   0.0021  0.0500  0.1000  -0.6402   0.0000   0.2363
   2.000   0.2276   0.01160   0.00226   0.0022  0.0500  0.1000  -0.6741   0.0000   0.2363
   2.100   0.2390   0.01162   0.00229   0.0023  0.0500  0.1000  -0.7083   0.0000   0.2362
   2.200   0.2505   0.01165   0.00232   0.0024  0.0500  0.1000  -0.7495   0.0000   0.2362
   2.300   0.2619   0.01167   0.00236   0.0025  0.0500  0.1000  -0.8025   0.0000   0.2361
   2.400   0.2733   0.01169   0.00240   0.0027  0.0500  0.1000  -0.8562   0.0000   0.2361
   2.500   0.2847   0.01172   0.00243   0.0028  0.0500  0.1000  -0.9108   0.0000   0.2360
   2.600   0.2962   0.01175   0.00247   0.0029  0.0500  0.1000  -0.9663   0.0000   0.2359
   2.700   0.3076   0.01177   0.00252   0.0030  0.0500  0.1000  -1.0225   0.0000   0.2358
   2.800   0.3190   0.01180   0.00256   0.0032  0.0500  0.1000  -1.0797   0.0000   0.2357
   2.900   0.3304   0.01183   0.00260   0.0033  0.0500  0.1000  -1.1376   0.0000   0.2356
   3.000   0.3418   0.01186   0.00265   0.0034  0.0500  0.1000  -1.1964   0.0000   0.2355
   3.100   0.3532   0.01190   0.00270   0.0036  0.0500  0.1000  -1.2560   0.0000   0.2354
   3.200   0.3646   0.01193   0.00275   0.0037  0.0500  0.1000  -1.3164   0.0000   0.2352
   3.300   0.3760   0.01196   0.00280   0.0039  0.0500  0.1000  -1.3777   0.0000   0.2351
   3.400   0.3873   0.01200   0.00286   0.0040  0.0500  0.1000  -1.4397   0.0000   0.2349
   3.500   0.3987   0.01204   0.00291   0.0042  0.0500  0.1000  -1.5026   0.0000   0.2348
   3.600   0.4101   0.01208   0.00297   0.0044  0.0500  0.1000  -1.5662   0.0000   0.2346
   3.700   0.4210   0.01215   0.00305   0.0046  0.0464  0.1000  -1.6318   0.0000   0.2343
   3.800   0.4316   0.01225   0.00314   0.0049  0.0399  0.1000  -1.6988   0.0000   0.2339
   3.900   0.4423   0.01235   0.00322   0.0051  0.0348  0.1000  -1.7670   0.0000   0.2335
   4.000   0.4530   0.01244   0.00331   0.0054  0.0312  0.1000  -1.8364   0.0000   0.2331
   4.100   0.4639   0.01252   0.00339   0.0056  0.0286  0.1000  -1.9072   0.0000   0.2328
   4.200   0.4748   0.01260   0.00348   0.0059  0.0267  0.1000  -1.9788   0.0000   0.2325
   4.300   0.4858   0.01267   0.00357   0.0061  0.0249  0.1000  -2.0515   0.0000   0.2322
   4.400   0.4966   0.01275   0.00366   0.0064  0.0234  0.1000  -2.1251   0.0000   0.2319
   4.500   0.5075   0.01283   0.00375   0.0067  0.0218  0.1000  -2.1996   0.0000   0.2316
   4.600   0.5183   0.01292   0.00385   0.0069  0.0204  0.1000  -2.2750   0.0000   0.2313
   4.700   0.5292   0.01301   0.00395   0.0072  0.0190  0.1000  -2.3513   0.0000   0.2310
   4.800   0.5399   0.01310   0.00405   0.0075  0.0179  0.1000  -2.4285   0.0000   0.2306
   4.900   0.5508   0.01318   0.00415   0.0078  0.0169  0.1000  -2.5067   0.0000   0.2303
   5.000   0.5615   0.01328   0.00426   0.0081  0.0160  0.1000  -2.5858   0.0000   0.2300
   5.100   0.5722   0.01337   0.00437   0.0084  0.0154  0.1000  -2.6656   0.0000   0.2296
   5.200   0.5830   0.01346   0.00449   0.0087  0.0149  0.1000  -2.7463   0.0000   0.2293
   5.300   0.5937   0.01356   0.00460   0.0090  0.0144  0.1000  -2.8278   0.0000   0.2290
   5.400   0.6043   0.01366   0.00473   0.0093  0.0139  0.1000  -2.9103   0.0000   0.2286
   5.500   0.6149   0.01377   0.00485   0.0097  0.0135  0.1000  -2.9936   0.0000   0.2282
   5.600   0.6255   0.01387   0.00498   0.0100  0.0132  0.1000  -3.0825   0.0000   0.2279
   5.700   0.6361   0.01398   0.00512   0.0104  0.0129  0.1000  -3.1723   0.0000   0.2275
   5.800   0.6466   0.01409   0.00525   0.0108  0.0126  0.1000  -3.2631   0.0000   0.2271
   5.900   0.6571   0.01421   0.00540   0.0111  0.0123  0.1000  -3.3550   0.0000   0.2267
   6.000   0.6674   0.01433   0.00554   0.0115  0.0120  0.1000  -3.4479   0.0000   0.2263
   6.100   0.6777   0.01446   0.00570   0.0119  0.0117  0.1000  -3.5419   0.0000   0.2259
   6.200   0.6880   0.01459   0.00585   0.0124  0.0115  0.1000  -3.6370   0.0000   0.2254
   6.300   0.6982   0.01472   0.00602   0.0128  0.0113  0.1000  -3.7321   0.0000   0.2250
   6.400   0.7084   0.01486   0.00618   0.0132  0.0111  0.1000  -3.8279   0.0000   0.2245
   6.500   0.7186   0.01500   0.00636   0.0137  0.0109  0.1000  -3.9244   0.0000   0.2241
   6.600   0.7286   0.01514   0.00654   0.0142  0.0107  0.1000  -4.0215   0.0000   0.2236
   6.700   0.7386   0.01529   0.00672   0.0146  0.0106  0.1000  -4.1196   0.0000   0.2231
   6.800   0.7485   0.01545   0.00691   0.0151  0.0105  0.1000  -4.2239   0.0000   0.2226
   6.900   0.7583   0.01561   0.00711   0.0156  0.0103  0.1000  -4.3289   0.0000   0.2221
   7.000   0.7680   0.01578   0.00731   0.0162  0.0102  0.1000  -4.4348   0.0000   0.2215
   7.100   0.7776   0.01595   0.00753   0.0167  0.0101  0.1000  -4.5416   0.0000   0.2210
   7.200   0.7871   0.01613   0.00774   0.0173  0.0100  0.1000  -4.6491   0.0000   0.2204
   7.300   0.7965   0.01632   0.00797   0.0179  0.0099  0.1000  -4.7573   0.0000   0.2198
   7.400   0.8057   0.01652   0.00820   0.0185  0.0098  0.1000  -4.8658   0.0000   0.2192
   7.500   0.8149   0.01672   0.00844   0.0191  0.0097  0.1000  -4.9727   0.0000   0.2186
   7.600   0.8240   0.01693   0.00870   0.0197  0.0095  0.1000  -5.0800   0.0000   0.2180
   7.700   0.8329   0.01714   0.00896   0.0204  0.0094  0.1000  -5.1897   0.0000   0.2173
   7.800   0.8416   0.01737   0.00923   0.0211  0.0093  0.1000  -5.3037   0.0000   0.2166
   7.900   0.8503   0.01760   0.00952   0.0218  0.0091  0.1000  -5.4181   0.0000   0.2160
   8.000   0.8587   0.01784   0.00981   0.0225  0.0090  0.1000  -5.5324   0.0000   0.2152
   8.100   0.8670   0.01809   0.01011   0.0233  0.0089  0.1000  -5.6464   0.0000   0.2145
   8.200   0.8751   0.01836   0.01042   0.0241  0.0088  0.1000  -5.7602   0.0000   0.2137
   8.300   0.8830   0.01863   0.01075   0.0249  0.0087  0.1000  -5.8739   0.0000   0.2129
   8.400   0.8907   0.01891   0.01108   0.0257  0.0087  0.1000  -5.9875   0.0000   0.2121
   8.500   0.8982   0.01920   0.01143   0.0266  0.0086  0.1000  -6.1011   0.0000   0.2113
   8.600   0.9056   0.01950   0.01178   0.0274  0.0085  0.1000  -6.2160   0.0000   0.2104
   8.700   0.9128   0.01980   0.01214   0.0283  0.0084  0.1000  -6.3368   0.0000   0.2096
   8.800   0.9195   0.02011   0.01250   0.0293  0.0083  0.1000  -6.4558   0.0000   0.2086
   8.900   0.9249   0.02046   0.01292   0.0305  0.0082  0.1000  -6.5580   0.0000   0.2074
   9.000   0.9297   0.02081   0.01334   0.0317  0.0081  0.1000  -6.6565   0.0000   0.2061
   9.100   0.9342   0.02119   0.01379   0.0330  0.0080  0.1000  -6.7531   0.0000   0.2047
   9.200   0.9387   0.02159   0.01427   0.0342  0.0079  0.1000  -6.8494   0.0000   0.2034
   9.300   0.9432   0.02203   0.01479   0.0354  0.0078  0.1000  -6.9455   0.0000   0.2022
   9.400   0.9476   0.02251   0.01534   0.0366  0.0077  0.1000  -7.0399   0.0000   0.2010
   9.500   0.9518   0.02301   0.01592   0.0378  0.0076  0.1000  -7.1325   0.0000   0.1998
   9.600   0.9558   0.02354   0.01653   0.0389  0.0075  0.1000  -7.2230   0.0000   0.1986
   9.700   0.9595   0.02410   0.01717   0.0400  0.0074  0.1000  -7.3144   0.0000   0.1975
   9.800   0.9630   0.02467   0.01783   0.0411  0.0073  0.1000  -7.4081   0.0000   0.1964
   9.900   0.9663   0.02527   0.01851   0.0422  0.0073  0.1000  -7.5008   0.0000   0.1952
  10.000   0.9694   0.02589   0.01921   0.0432  0.0072  0.1000  -7.5929   0.0000   0.1941
  10.100   0.9722   0.02653   0.01993   0.0443  0.0071  0.1000  -7.6843   0.0000   0.1931
  10.200   0.9748   0.02718   0.02068   0.0452  0.0070  0.1000  -7.7746   0.0000   0.1920
  10.300   0.9743   0.02813   0.02173   0.0464  0.0069  0.1000  -7.8110   0.0000   0.1907
  10.400   0.9731   0.02914   0.02286   0.0475  0.0068  0.1000  -7.8385   0.0000   0.1893
  10.500   0.9714   0.03020   0.02404   0.0485  0.0067  0.1000  -7.8608   0.0000   0.1880
  10.600   0.9691   0.03132   0.02527   0.0495  0.0066  0.1000  -7.8782   0.0000   0.1868
  10.700   0.9663   0.03249   0.02656   0.0503  0.0065  0.1000  -7.8903   0.0000   0.1856
  10.800   0.9629   0.03373   0.02790   0.0511  0.0065  0.1000  -7.8964   0.0000   0.1844
  10.900   0.9589   0.03504   0.02931   0.0518  0.0064  0.1000  -7.8970   0.0000   0.1833
  11.000   0.9545   0.03641   0.03079   0.0523  0.0064  0.1000  -7.8928   0.0000   0.1823
  11.100   0.9496   0.03785   0.03232   0.0527  0.0063  0.1000  -7.8842   0.0000   0.1815
  11.200   0.9443   0.03936   0.03393   0.0530  0.0063  0.1000  -7.8719   0.0000   0.1807
  11.300   0.9387   0.04094   0.03560   0.0531  0.0062  0.1000  -7.8561   0.0000   0.1800
  11.400   0.9328   0.04259   0.03733   0.0530  0.0062  0.1000  -7.8383   0.0000   0.1795
  11.500   0.9267   0.04432   0.03914   0.0528  0.0062  0.1000  -7.8190   0.0000   0.1792
  11.600   0.9203   0.04613   0.04103   0.0525  0.0061  0.1000  -7.7964   0.0000   0.1789
  11.700   0.9137   0.04802   0.04299   0.0520  0.0061  0.1000  -7.7706   0.0000   0.1789
  11.800   0.9070   0.05001   0.04505   0.0513  0.0061  0.1000  -7.7413   0.0000   0.1790
  11.900   0.9000   0.05209   0.04720   0.0504  0.0061  0.1000  -7.7084   0.0000   0.1793
  12.000   0.8929   0.05427   0.04944   0.0494  0.0060  0.1000  -7.6715   0.0000   0.1798
  12.100   0.8857   0.05656   0.05179   0.0482  0.0060  0.1000  -7.6304   0.0000   0.1805
  12.200   0.8782   0.05896   0.05425   0.0469  0.0060  0.1000  -7.5844   0.0000   0.1814
  12.300   0.8707   0.06150   0.05684   0.0453  0.0060  0.1000  -7.5332   0.0000   0.1825
  12.400   0.8630   0.06417   0.05957   0.0436  0.0060  0.1000  -7.4759   0.0000   0.1838
  12.500   0.8551   0.06701   0.06245   0.0418  0.0060  0.1000  -7.4116   0.0000   0.1853
  12.600   0.8470   0.07002   0.06551   0.0397  0.0061  0.1000  -7.3389   0.0000   0.1871
  12.700   0.8387   0.07323   0.06876   0.0375  0.0061  0.1000  -7.2557   0.0000   0.1892
  12.800   0.8301   0.07669   0.07226   0.0351  0.0061  0.1000  -7.1584   0.0000   0.1915
  12.900   0.8210   0.08046   0.07607   0.0325  0.0062  0.1000  -7.0410   0.0000   0.1940
  13.000   0.8109   0.08466   0.08030   0.0298  0.0062  0.1000  -6.8912   0.0000   0.1969
  13.100   0.7986   0.08952   0.08519   0.0268  0.0063  0.1000  -6.6809   0.0000   0.2000
  13.200   0.7814   0.09527   0.09094   0.0238  0.0064  0.1000  -6.3619   0.0000   0.2032
  13.300   0.7649   0.10057   0.09622   0.0210  0.0064  0.1000  -6.0647   0.0000   0.2063
  13.400   0.7505   0.10542   0.10106   0.0183  0.0064  0.1000  -5.8008   0.0000   0.2094
  13.500   0.7373   0.11008   0.10570   0.0157  0.0064  0.1000  -5.5492   0.0000   0.2125
  13.600   0.7255   0.11454   0.11013   0.0132  0.0064  0.1000  -5.3108   0.0000   0.2155
  13.700   0.7153   0.11872   0.11430   0.0109  0.0063  0.1000  -5.0934   0.0000   0.2185
  13.800   0.7070   0.12258   0.11814   0.0088  0.0063  0.1000  -4.9036   0.0000   0.2212
  13.900   0.7004   0.12608   0.12163   0.0069  0.0062  0.1000  -4.7439   0.0000   0.2238
  14.000   0.6955   0.12928   0.12481   0.0052  0.0062  0.1000  -4.6130   0.0000   0.2261
  14.100   0.6920   0.13219   0.12771   0.0036  0.0061  0.1000  -4.5079   0.0000   0.2283
  14.200   0.6897   0.13485   0.13037   0.0022  0.0060  0.1000  -4.4251   0.0000   0.2302
  14.300   0.6882   0.13731   0.13282   0.0009  0.0059  0.1000  -4.3609   0.0000   0.2320
  14.400   0.6875   0.13960   0.13511  -0.0003  0.0059  0.1000  -4.3123   0.0000   0.2337
  14.500   0.6873   0.14175   0.13726  -0.0014  0.0058  0.1000  -4.2764   0.0000   0.2353
  14.600   0.6819   0.14548   0.14097  -0.0033  0.0056  0.1000  -4.0655   0.0000   0.2381
  14.700   0.6794   0.14842   0.14390  -0.0048  0.0055  0.1000  -3.9350   0.0000   0.2402
  14.800   0.6786   0.15090   0.14638  -0.0061  0.0054  0.1000  -3.8496   0.0000   0.2420
  14.900   0.6786   0.15319   0.14867  -0.0072  0.0053  0.1000  -3.7852   0.0000   0.2437
  15.000   0.6791   0.15536   0.15083  -0.0083  0.0052  0.1000  -3.7332   0.0000   0.2452
  15.100   0.6799   0.15741   0.15289  -0.0094  0.0051  0.1000  -3.6911   0.0000   0.2467
  15.200   0.6811   0.15938   0.15485  -0.0104  0.0050  0.1000  -3.6583   0.0000   0.2480
  15.300   0.6827   0.16125   0.15673  -0.0114  0.0050  0.1000  -3.6359   0.0000   0.2493
  15.400   0.6845   0.16305   0.15853  -0.0124  0.0049  0.1000  -3.6244   0.0000   0.2506
  15.500   0.6865   0.16477   0.16025  -0.0133  0.0048  0.1000  -3.6202   0.0000   0.2518
  15.600   0.6888   0.16643   0.16191  -0.0142  0.0048  0.1000  -3.6227   0.0000   0.2529
  15.700   0.6891   0.16877   0.16424  -0.0153  0.0046  0.1000  -3.5388   0.0000   0.2545
  15.800   0.6899   0.17103   0.16651  -0.0165  0.0045  0.1000  -3.4674   0.0000   0.2560
  15.900   0.6914   0.17301   0.16848  -0.0175  0.0044  0.1000  -3.4234   0.0000   0.2573
  16.000   0.6933   0.17488   0.17036  -0.0184  0.0043  0.1000  -3.3931   0.0000   0.2586
  16.100   0.6954   0.17669   0.17216  -0.0194  0.0042  0.1000  -3.3696   0.0000   0.2597
  16.200   0.6976   0.17844   0.17392  -0.0203  0.0041  0.1000  -3.3513   0.0000   0.2609
  16.300   0.7000   0.18015   0.17563  -0.0212  0.0041  0.1000  -3.3374   0.0000   0.2620
  16.400   0.7025   0.18182   0.17730  -0.0222  0.0040  0.1000  -3.3279   0.0000   0.2630
  16.500   0.7052   0.18344   0.17893  -0.0230  0.0040  0.1000  -3.3236   0.0000   0.2641
  16.600   0.7080   0.18502   0.18051  -0.0239  0.0039  0.1000  -3.3248   0.0000   0.2650
  16.700   0.7108   0.18655   0.18204  -0.0248  0.0039  0.1000  -3.3311   0.0000   0.2660
  16.800   0.7138   0.18805   0.18355  -0.0257  0.0038  0.1000  -3.3391   0.0000   0.2669
  16.900   0.7153   0.19024   0.18574  -0.0267  0.0037  0.1000  -3.2613   0.0000   0.2683
  17.000   0.7174   0.19215   0.18765  -0.0277  0.0036  0.1000  -3.2193   0.0000   0.2694
  17.100   0.7199   0.19392   0.18942  -0.0286  0.0035  0.1000  -3.1945   0.0000   0.2705
  17.200   0.7226   0.19559   0.19109  -0.0296  0.0034  0.1000  -3.1788   0.0000   0.2715
  17.300   0.7254   0.19724   0.19274  -0.0305  0.0033  0.1000  -3.1677   0.0000   0.2724
  17.400   0.7283   0.19885   0.19436  -0.0314  0.0033  0.1000  -3.1600   0.0000   0.2734
  17.500   0.7312   0.20044   0.19595  -0.0322  0.0032  0.1000  -3.1552   0.0000   0.2743
  17.600   0.7342   0.20201   0.19752  -0.0331  0.0032  0.1000  -3.1533   0.0000   0.2752
  17.700   0.7373   0.20355   0.19907  -0.0340  0.0031  0.1000  -3.1540   0.0000   0.2761
  17.800   0.7404   0.20506   0.20058  -0.0349  0.0031  0.1000  -3.1582   0.0000   0.2769
  17.900   0.7436   0.20654   0.20207  -0.0358  0.0031  0.1000  -3.1667   0.0000   0.2777
  18.000   0.7469   0.20799   0.20352  -0.0366  0.0030  0.1000  -3.1794   0.0000   0.2785
  18.100   0.7495   0.20981   0.20534  -0.0376  0.0029  0.1000  -3.1381   0.0000   0.2795
  18.200   0.7521   0.21166   0.20720  -0.0385  0.0028  0.1000  -3.0892   0.0000   0.2805
  18.300   0.7550   0.21339   0.20892  -0.0395  0.0027  0.1000  -3.0582   0.0000   0.2814
  18.400   0.7580   0.21503   0.21057  -0.0404  0.0027  0.1000  -3.0389   0.0000   0.2823
  18.500   0.7611   0.21662   0.21216  -0.0413  0.0026  0.1000  -3.0296   0.0000   0.2831
  18.600   0.7642   0.21815   0.21370  -0.0422  0.0026  0.1000  -3.0258   0.0000   0.2839
  18.700   0.7674   0.21969   0.21524  -0.0431  0.0025  0.1000  -3.0241   0.0000   0.2847
  18.800   0.7707   0.22121   0.21677  -0.0440  0.0025  0.1000  -3.0246   0.0000   0.2855
  18.900   0.7739   0.22272   0.21828  -0.0448  0.0024  0.1000  -3.0271   0.0000   0.2863
  19.000   0.7772   0.22421   0.21977  -0.0457  0.0024  0.1000  -3.0316   0.0000   0.2870
  19.100   0.7806   0.22568   0.22125  -0.0466  0.0024  0.1000  -3.0381   0.0000   0.2877
  19.200   0.7839   0.22713   0.22271  -0.0475  0.0024  0.1000  -3.0464   0.0000   0.2885
  19.300   0.7873   0.22860   0.22418  -0.0484  0.0023  0.1000  -3.0573   0.0000   0.2892
  19.400   0.7906   0.23012   0.22570  -0.0493  0.0023  0.1000  -3.0514   0.0000   0.2899
  19.500   0.7935   0.23191   0.22750  -0.0502  0.0022  0.1000  -3.0078   0.0000   0.2908
  19.600   0.7966   0.23365   0.22924  -0.0512  0.0022  0.1000  -2.9741   0.0000   0.2916
  19.700   0.7998   0.23527   0.23087  -0.0521  0.0021  0.1000  -2.9511   0.0000   0.2923
  19.800   0.8030   0.23686   0.23246  -0.0530  0.0020  0.1000  -2.9368   0.0000   0.2931
  19.900   0.8063   0.23839   0.23399  -0.0539  0.0020  0.1000  -2.9285   0.0000   0.2938
  20.000   0.8097   0.23993   0.23553  -0.0548  0.0019  0.1000  -2.9236   0.0000   0.2945


