xflr5 v6.11

 Calculated polar for: NACA 63012 AIRFOIL

 1 1 Reynolds number fixed          Mach number fixed         

 xtrf =   0.050 (top)        0.100 (bottom)
 Mach =   0.600     Re =     1.200 e 6     Ncrit =   1.000

  alpha     CL        CD       CDp       Cm    Top Xtr Bot Xtr   Cpmin    Chinge    XCp    
 ------- -------- --------- --------- -------- ------- ------- -------- --------- ---------
  -2.000  -0.2748   0.01061   0.00258  -0.0035  0.0500  0.1000  -0.8294   0.0000   0.2329
  -1.900  -0.2611   0.01060   0.00255  -0.0033  0.0500  0.1000  -0.7858   0.0000   0.2332
  -1.800  -0.2474   0.01058   0.00252  -0.0031  0.0500  0.1000  -0.7438   0.0000   0.2335
  -1.700  -0.2338   0.01057   0.00249  -0.0028  0.0500  0.1000  -0.7040   0.0000   0.2337
  -1.600  -0.2201   0.01056   0.00246  -0.0026  0.0500  0.1000  -0.6648   0.0000   0.2340
  -1.500  -0.2065   0.01055   0.00244  -0.0024  0.0500  0.1000  -0.6344   0.0000   0.2343
  -1.400  -0.1928   0.01054   0.00242  -0.0022  0.0500  0.1000  -0.6142   0.0000   0.2346
  -1.300  -0.1792   0.01053   0.00240  -0.0020  0.0500  0.1000  -0.5962   0.0000   0.2349
  -1.200  -0.1656   0.01052   0.00238  -0.0018  0.0500  0.1000  -0.5782   0.0000   0.2352
  -1.100  -0.1520   0.01051   0.00236  -0.0016  0.0500  0.1000  -0.5605   0.0000   0.2356
  -1.000  -0.1384   0.01051   0.00234  -0.0014  0.0500  0.1000  -0.5452   0.0000   0.2360
  -0.900  -0.1248   0.01050   0.00233  -0.0012  0.0500  0.1000  -0.5363   0.0000   0.2364
  -0.800  -0.1112   0.01050   0.00232  -0.0010  0.0500  0.1000  -0.5276   0.0000   0.2370
  -0.700  -0.0976   0.01049   0.00231  -0.0008  0.0500  0.1000  -0.5189   0.0000   0.2376
  -0.600  -0.0840   0.01049   0.00230  -0.0007  0.0500  0.1000  -0.5103   0.0000   0.2384
  -0.500  -0.0704   0.01049   0.00230  -0.0005  0.0500  0.1000  -0.5018   0.0000   0.2395
  -0.400  -0.0569   0.01049   0.00229  -0.0003  0.0500  0.1000  -0.4933   0.0000   0.2411
  -0.300  -0.0433   0.01049   0.00229  -0.0001  0.0500  0.1000  -0.4849   0.0000   0.2437
  -0.200  -0.0297   0.01050   0.00229   0.0001  0.0500  0.1000  -0.4765   0.0000   0.2485
  -0.100  -0.0162   0.01050   0.00229   0.0002  0.0500  0.1000  -0.4681   0.0000   0.2615
   0.000  -0.0026   0.01050   0.00229   0.0004  0.0500  0.1000  -0.4599   0.0000   0.4079
   0.100   0.0109   0.01051   0.00229   0.0006  0.0500  0.1000  -0.4658   0.0000   0.1907
   0.200   0.0245   0.01051   0.00230   0.0008  0.0500  0.1000  -0.4742   0.0000   0.2141
   0.300   0.0380   0.01052   0.00230   0.0010  0.0500  0.1000  -0.4826   0.0000   0.2208
   0.400   0.0516   0.01053   0.00231   0.0011  0.0500  0.1000  -0.4910   0.0000   0.2239
   0.500   0.0651   0.01054   0.00232   0.0013  0.0500  0.1000  -0.4994   0.0000   0.2257
   0.600   0.0786   0.01055   0.00233   0.0015  0.0500  0.1000  -0.5079   0.0000   0.2269
   0.700   0.0922   0.01056   0.00235   0.0017  0.0500  0.1000  -0.5166   0.0000   0.2277
   0.800   0.1057   0.01057   0.00236   0.0019  0.0500  0.1000  -0.5252   0.0000   0.2282
   0.900   0.1193   0.01059   0.00238   0.0021  0.0500  0.1000  -0.5339   0.0000   0.2286
   1.000   0.1328   0.01060   0.00240   0.0023  0.0500  0.1000  -0.5428   0.0000   0.2289
   1.100   0.1464   0.01062   0.00242   0.0025  0.0500  0.1000  -0.5517   0.0000   0.2291
   1.200   0.1599   0.01063   0.00244   0.0027  0.0500  0.1000  -0.5625   0.0000   0.2292
   1.300   0.1735   0.01065   0.00247   0.0029  0.0500  0.1000  -0.5819   0.0000   0.2293
   1.400   0.1870   0.01067   0.00249   0.0031  0.0500  0.1000  -0.6068   0.0000   0.2294
   1.500   0.2006   0.01069   0.00252   0.0033  0.0500  0.1000  -0.6319   0.0000   0.2294
   1.600   0.2141   0.01071   0.00255   0.0035  0.0500  0.1000  -0.6578   0.0000   0.2293
   1.700   0.2277   0.01073   0.00258   0.0038  0.0500  0.1000  -0.6936   0.0000   0.2293
   1.800   0.2412   0.01076   0.00262   0.0040  0.0500  0.1000  -0.7332   0.0000   0.2292
   1.900   0.2548   0.01078   0.00265   0.0043  0.0500  0.1000  -0.7742   0.0000   0.2291
   2.000   0.2684   0.01081   0.00269   0.0045  0.0500  0.1000  -0.8174   0.0000   0.2289
   2.100   0.2820   0.01084   0.00273   0.0048  0.0500  0.1000  -0.8613   0.0000   0.2288
   2.200   0.2955   0.01086   0.00277   0.0050  0.0500  0.1000  -0.9065   0.0000   0.2286
   2.300   0.3091   0.01089   0.00282   0.0053  0.0500  0.1000  -0.9751   0.0000   0.2284
   2.400   0.3227   0.01093   0.00286   0.0056  0.0500  0.1000  -1.0453   0.0000   0.2282
   2.500   0.3362   0.01096   0.00292   0.0059  0.0491  0.1000  -1.1170   0.0000   0.2279
   2.600   0.3493   0.01102   0.00298   0.0063  0.0458  0.1000  -1.1893   0.0000   0.2275
   2.700   0.3625   0.01108   0.00305   0.0067  0.0426  0.1000  -1.2635   0.0000   0.2270
   2.800   0.3756   0.01115   0.00312   0.0071  0.0391  0.1000  -1.3391   0.0000   0.2265
   3.000   0.4017   0.01129   0.00327   0.0079  0.0328  0.1000  -1.4956   0.0000   0.2255
   3.100   0.4144   0.01138   0.00336   0.0084  0.0283  0.1000  -1.5756   0.0000   0.2249
   3.200   0.4270   0.01148   0.00346   0.0090  0.0233  0.1000  -1.6572   0.0000   0.2242
   3.300   0.4397   0.01157   0.00356   0.0095  0.0186  0.1000  -1.7412   0.0000   0.2235
   3.400   0.4525   0.01166   0.00365   0.0100  0.0158  0.1000  -1.8278   0.0000   0.2229
   3.500   0.4655   0.01174   0.00375   0.0105  0.0145  0.1000  -1.9171   0.0000   0.2224
   3.600   0.4785   0.01182   0.00385   0.0110  0.0135  0.1000  -2.0085   0.0000   0.2219
   3.700   0.4916   0.01190   0.00395   0.0116  0.0126  0.1000  -2.1022   0.0000   0.2213
   3.800   0.5045   0.01198   0.00406   0.0122  0.0119  0.1000  -2.1981   0.0000   0.2207
   3.900   0.5175   0.01207   0.00417   0.0127  0.0113  0.1000  -2.2964   0.0000   0.2201
   4.000   0.5304   0.01216   0.00429   0.0133  0.0108  0.1000  -2.4017   0.0000   0.2195
   4.100   0.5434   0.01225   0.00441   0.0140  0.0104  0.1000  -2.5096   0.0000   0.2189
   4.200   0.5562   0.01235   0.00454   0.0146  0.0101  0.1000  -2.6200   0.0000   0.2183
   4.300   0.5690   0.01245   0.00467   0.0153  0.0099  0.1000  -2.7328   0.0000   0.2176
   4.400   0.5818   0.01255   0.00481   0.0160  0.0097  0.1000  -2.8478   0.0000   0.2169
   4.500   0.5946   0.01266   0.00495   0.0167  0.0095  0.1000  -2.9652   0.0000   0.2162
   4.600   0.6072   0.01278   0.00510   0.0175  0.0094  0.1000  -3.0846   0.0000   0.2154
   4.700   0.6197   0.01290   0.00527   0.0183  0.0093  0.1000  -3.2059   0.0000   0.2146
   4.800   0.6321   0.01303   0.00544   0.0192  0.0091  0.1000  -3.3289   0.0000   0.2137
   4.900   0.6443   0.01317   0.00563   0.0201  0.0090  0.1000  -3.4530   0.0000   0.2128
   5.000   0.6563   0.01332   0.00583   0.0210  0.0089  0.1000  -3.5775   0.0000   0.2118
   5.100   0.6680   0.01348   0.00605   0.0220  0.0088  0.1000  -3.7014   0.0000   0.2107
   5.200   0.6794   0.01367   0.00629   0.0231  0.0087  0.1000  -3.8236   0.0000   0.2095
   5.300   0.6903   0.01387   0.00655   0.0243  0.0087  0.1000  -3.9425   0.0000   0.2083
   5.400   0.7006   0.01410   0.00685   0.0256  0.0086  0.1000  -4.0565   0.0000   0.2068
   5.500   0.7102   0.01436   0.00718   0.0270  0.0085  0.1000  -4.1640   0.0000   0.2052
   5.600   0.7189   0.01465   0.00755   0.0285  0.0084  0.1000  -4.2633   0.0000   0.2035
   5.700   0.7266   0.01498   0.00797   0.0302  0.0082  0.1000  -4.3478   0.0000   0.2014
   5.800   0.7331   0.01537   0.00844   0.0320  0.0081  0.1000  -4.4168   0.0000   0.1992
   5.900   0.7381   0.01578   0.00895   0.0341  0.0079  0.1000  -4.4725   0.0000   0.1966
   6.000   0.7413   0.01621   0.00946   0.0364  0.0078  0.1000  -4.5248   0.0000   0.1936
   6.100   0.7439   0.01667   0.01001   0.0387  0.0077  0.1000  -4.5725   0.0000   0.1905
   6.200   0.7466   0.01720   0.01064   0.0409  0.0076  0.1000  -4.6152   0.0000   0.1875
   6.300   0.7497   0.01782   0.01136   0.0430  0.0075  0.1000  -4.6527   0.0000   0.1849
   6.400   0.7530   0.01851   0.01216   0.0450  0.0074  0.1000  -4.6843   0.0000   0.1824
   6.500   0.7562   0.01928   0.01304   0.0468  0.0074  0.1000  -4.7094   0.0000   0.1801
   6.600   0.7592   0.02011   0.01399   0.0486  0.0073  0.1000  -4.7281   0.0000   0.1778
   6.700   0.7618   0.02101   0.01500   0.0503  0.0072  0.1000  -4.7407   0.0000   0.1757
   6.800   0.7637   0.02196   0.01608   0.0520  0.0071  0.1000  -4.7474   0.0000   0.1735
   6.900   0.7646   0.02298   0.01721   0.0536  0.0070  0.1000  -4.7474   0.0000   0.1713
   7.000   0.7643   0.02406   0.01841   0.0552  0.0068  0.1000  -4.7337   0.0000   0.1691
   7.100   0.7631   0.02519   0.01965   0.0567  0.0067  0.1000  -4.7302   0.0000   0.1669
   7.200   0.7611   0.02635   0.02091   0.0581  0.0065  0.1000  -4.7270   0.0000   0.1647
   7.300   0.7585   0.02754   0.02220   0.0594  0.0065  0.1000  -4.7229   0.0000   0.1626
   7.400   0.7552   0.02877   0.02354   0.0605  0.0064  0.1000  -4.7164   0.0000   0.1606
   7.500   0.7514   0.03006   0.02491   0.0615  0.0064  0.1000  -4.7079   0.0000   0.1588
   7.600   0.7470   0.03140   0.02633   0.0623  0.0063  0.1000  -4.6977   0.0000   0.1571
   7.700   0.7423   0.03279   0.02781   0.0629  0.0063  0.1000  -4.6858   0.0000   0.1556
   7.800   0.7372   0.03425   0.02934   0.0633  0.0062  0.1000  -4.6726   0.0000   0.1542
   7.900   0.7318   0.03577   0.03094   0.0635  0.0062  0.1000  -4.6580   0.0000   0.1531
   8.000   0.7262   0.03736   0.03260   0.0635  0.0061  0.1000  -4.6422   0.0000   0.1522
   8.100   0.7204   0.03902   0.03432   0.0634  0.0061  0.1000  -4.6250   0.0000   0.1515
   8.200   0.7144   0.04076   0.03611   0.0630  0.0061  0.1000  -4.6066   0.0000   0.1511
   8.300   0.7083   0.04256   0.03798   0.0625  0.0061  0.1000  -4.5869   0.0000   0.1509
   8.400   0.7021   0.04445   0.03992   0.0618  0.0060  0.1000  -4.5657   0.0000   0.1510
   8.500   0.6958   0.04642   0.04194   0.0609  0.0060  0.1000  -4.5428   0.0000   0.1513
   8.600   0.6895   0.04847   0.04404   0.0598  0.0060  0.1000  -4.5178   0.0000   0.1519
   8.700   0.6832   0.05061   0.04622   0.0586  0.0059  0.1000  -4.4909   0.0000   0.1527
   8.800   0.6769   0.05284   0.04849   0.0572  0.0059  0.1000  -4.4618   0.0000   0.1538
   8.900   0.6707   0.05516   0.05084   0.0556  0.0059  0.1000  -4.4304   0.0000   0.1552
   9.000   0.6646   0.05756   0.05327   0.0539  0.0059  0.1000  -4.3981   0.0000   0.1568
   9.100   0.6586   0.06005   0.05579   0.0522  0.0058  0.1000  -4.3639   0.0000   0.1586
   9.200   0.6529   0.06263   0.05840   0.0503  0.0058  0.1000  -4.3255   0.0000   0.1607
   9.300   0.6473   0.06531   0.06109   0.0484  0.0058  0.1000  -4.2823   0.0000   0.1629
   9.400   0.6421   0.06806   0.06386   0.0464  0.0058  0.1000  -4.2344   0.0000   0.1653
   9.500   0.6373   0.07091   0.06672   0.0444  0.0057  0.1000  -4.1804   0.0000   0.1678
   9.600   0.6330   0.07388   0.06970   0.0424  0.0057  0.1000  -4.1191   0.0000   0.1704
   9.700   0.6288   0.07667   0.07249   0.0407  0.0057  0.1000  -4.0628   0.0000   0.1727
   9.800   0.6248   0.07933   0.07514   0.0390  0.0056  0.1000  -4.0106   0.0000   0.1749
   9.900   0.6211   0.08191   0.07771   0.0374  0.0056  0.1000  -3.9604   0.0000   0.1770
  10.000   0.6175   0.08443   0.08023   0.0359  0.0055  0.1000  -3.9119   0.0000   0.1790
  10.100   0.6143   0.08691   0.08270   0.0344  0.0055  0.1000  -3.8649   0.0000   0.1810
  10.200   0.6114   0.08935   0.08514   0.0330  0.0055  0.1000  -3.8192   0.0000   0.1830
  10.300   0.6087   0.09176   0.08754   0.0316  0.0054  0.1000  -3.7750   0.0000   0.1850
  10.400   0.6063   0.09414   0.08992   0.0302  0.0054  0.1000  -3.7320   0.0000   0.1869
  10.500   0.6042   0.09651   0.09229   0.0289  0.0054  0.1000  -3.6897   0.0000   0.1889
  10.600   0.6024   0.09886   0.09463   0.0276  0.0053  0.1000  -3.6480   0.0000   0.1908
  10.700   0.6009   0.10119   0.09696   0.0263  0.0053  0.1000  -3.6070   0.0000   0.1928
  10.800   0.5996   0.10350   0.09927   0.0250  0.0052  0.1000  -3.5668   0.0000   0.1947
  10.900   0.5986   0.10581   0.10157   0.0238  0.0052  0.1000  -3.5274   0.0000   0.1967
  11.000   0.5979   0.10810   0.10386   0.0225  0.0052  0.1000  -3.4888   0.0000   0.1986
  11.100   0.5974   0.11037   0.10613   0.0213  0.0051  0.1000  -3.4511   0.0000   0.2005
  11.200   0.5971   0.11263   0.10839   0.0201  0.0051  0.1000  -3.4144   0.0000   0.2024
  11.300   0.5971   0.11488   0.11063   0.0189  0.0050  0.1000  -3.3815   0.0000   0.2043
  11.400   0.5973   0.11712   0.11287   0.0178  0.0050  0.1000  -3.3516   0.0000   0.2062
  11.500   0.5977   0.11935   0.11510   0.0166  0.0049  0.1000  -3.3219   0.0000   0.2081
  11.600   0.5983   0.12157   0.11732   0.0154  0.0049  0.1000  -3.2929   0.0000   0.2100
  11.700   0.5991   0.12378   0.11953   0.0143  0.0048  0.1000  -3.2655   0.0000   0.2118
  11.800   0.6000   0.12601   0.12175   0.0132  0.0047  0.1000  -3.2350   0.0000   0.2137
  11.900   0.6011   0.12823   0.12397   0.0120  0.0046  0.1000  -3.2042   0.0000   0.2155
  12.000   0.6024   0.13043   0.12617   0.0109  0.0045  0.1000  -3.1753   0.0000   0.2173
  12.100   0.6039   0.13261   0.12835   0.0098  0.0044  0.1000  -3.1491   0.0000   0.2191
  12.200   0.6056   0.13477   0.13051   0.0088  0.0044  0.1000  -3.1251   0.0000   0.2208
  12.300   0.6075   0.13693   0.13267   0.0077  0.0043  0.1000  -3.1017   0.0000   0.2225
  12.400   0.6095   0.13908   0.13482   0.0066  0.0043  0.1000  -3.0791   0.0000   0.2242
  12.500   0.6116   0.14123   0.13697   0.0056  0.0042  0.1000  -3.0572   0.0000   0.2259
  12.600   0.6139   0.14337   0.13911   0.0045  0.0042  0.1000  -3.0393   0.0000   0.2275
  12.700   0.6163   0.14550   0.14124   0.0035  0.0041  0.1000  -3.0251   0.0000   0.2291
  12.800   0.6188   0.14765   0.14339   0.0024  0.0040  0.1000  -3.0110   0.0000   0.2308
  12.900   0.6214   0.14977   0.14551   0.0014  0.0040  0.1000  -2.9972   0.0000   0.2323
  13.000   0.6241   0.15191   0.14765   0.0004  0.0039  0.1000  -2.9845   0.0000   0.2339
  13.100   0.6268   0.15405   0.14979  -0.0007  0.0038  0.1000  -2.9695   0.0000   0.2355
  13.200   0.6295   0.15624   0.15198  -0.0017  0.0037  0.1000  -2.9497   0.0000   0.2370
  13.300   0.6324   0.15841   0.15415  -0.0028  0.0036  0.1000  -2.9317   0.0000   0.2386
  13.400   0.6354   0.16054   0.15628  -0.0038  0.0035  0.1000  -2.9165   0.0000   0.2401
  13.500   0.6385   0.16269   0.15843  -0.0048  0.0035  0.1000  -2.9024   0.0000   0.2415
  13.600   0.6417   0.16485   0.16060  -0.0058  0.0034  0.1000  -2.8886   0.0000   0.2430
  13.700   0.6449   0.16698   0.16273  -0.0068  0.0034  0.1000  -2.8751   0.0000   0.2444
  13.800   0.6482   0.16913   0.16488  -0.0079  0.0033  0.1000  -2.8650   0.0000   0.2458
  13.900   0.6516   0.17130   0.16705  -0.0089  0.0033  0.1000  -2.8589   0.0000   0.2472
  14.000   0.6550   0.17346   0.16922  -0.0099  0.0032  0.1000  -2.8528   0.0000   0.2486
  14.100   0.6585   0.17563   0.17138  -0.0109  0.0031  0.1000  -2.8469   0.0000   0.2500
  14.200   0.6621   0.17779   0.17355  -0.0119  0.0030  0.1000  -2.8423   0.0000   0.2513
  14.300   0.6657   0.17998   0.17574  -0.0129  0.0030  0.1000  -2.8335   0.0000   0.2526
  14.400   0.6692   0.18223   0.17800  -0.0140  0.0029  0.1000  -2.8195   0.0000   0.2540
  14.500   0.6729   0.18447   0.18023  -0.0150  0.0028  0.1000  -2.8073   0.0000   0.2553
  14.600   0.6766   0.18669   0.18245  -0.0160  0.0027  0.1000  -2.7978   0.0000   0.2565
  14.700   0.6804   0.18890   0.18467  -0.0170  0.0027  0.1000  -2.7891   0.0000   0.2578
  14.800   0.6842   0.19114   0.18691  -0.0181  0.0026  0.1000  -2.7805   0.0000   0.2590
  14.900   0.6881   0.19338   0.18915  -0.0191  0.0026  0.1000  -2.7721   0.0000   0.2603
  15.000   0.6920   0.19562   0.19140  -0.0201  0.0025  0.1000  -2.7639   0.0000   0.2615
  15.100   0.6959   0.19788   0.19366  -0.0211  0.0025  0.1000  -2.7627   0.0000   0.2627
  15.200   0.6999   0.20015   0.19593  -0.0221  0.0025  0.1000  -2.7616   0.0000   0.2638
  15.300   0.7040   0.20243   0.19821  -0.0232  0.0024  0.1000  -2.7608   0.0000   0.2650
  15.400   0.7081   0.20471   0.20050  -0.0242  0.0023  0.1000  -2.7613   0.0000   0.2661
  15.500   0.7121   0.20706   0.20284  -0.0252  0.0022  0.1000  -2.7531   0.0000   0.2673
  15.600   0.7161   0.20944   0.20523  -0.0263  0.0022  0.1000  -2.7424   0.0000   0.2684
  15.700   0.7202   0.21182   0.20762  -0.0273  0.0021  0.1000  -2.7335   0.0000   0.2695
  15.800   0.7244   0.21420   0.20999  -0.0283  0.0020  0.1000  -2.7274   0.0000   0.2706
  15.900   0.7286   0.21658   0.21237  -0.0294  0.0020  0.1000  -2.7220   0.0000   0.2717
  16.000   0.7328   0.21899   0.21479  -0.0304  0.0020  0.1000  -2.7167   0.0000   0.2728
  16.100   0.7371   0.22139   0.21720  -0.0314  0.0019  0.1000  -2.7114   0.0000   0.2738
  16.200   0.7413   0.22381   0.21962  -0.0325  0.0019  0.1000  -2.7063   0.0000   0.2749
  16.300   0.7456   0.22625   0.22206  -0.0335  0.0019  0.1000  -2.7013   0.0000   0.2759
  16.400   0.7500   0.22870   0.22451  -0.0346  0.0018  0.1000  -2.6991   0.0000   0.2769
  16.500   0.7543   0.23117   0.22698  -0.0356  0.0018  0.1000  -2.7017   0.0000   0.2779
  16.600   0.7587   0.23365   0.22947  -0.0367  0.0017  0.1000  -2.7050   0.0000   0.2789
  16.700   0.7630   0.23619   0.23201  -0.0377  0.0017  0.1000  -2.7026   0.0000   0.2798
  16.800   0.7674   0.23881   0.23463  -0.0388  0.0016  0.1000  -2.6940   0.0000   0.2808
  16.900   0.7717   0.24142   0.23725  -0.0398  0.0016  0.1000  -2.6861   0.0000   0.2818
  17.000   0.7761   0.24404   0.23987  -0.0409  0.0015  0.1000  -2.6804   0.0000   0.2827
  17.100   0.7806   0.24666   0.24250  -0.0420  0.0015  0.1000  -2.6771   0.0000   0.2837
  17.200   0.7850   0.24931   0.24515  -0.0430  0.0014  0.1000  -2.6742   0.0000   0.2846
  17.300   0.7895   0.25197   0.24781  -0.0441  0.0014  0.1000  -2.6712   0.0000   0.2855
  17.400   0.7940   0.25466   0.25051  -0.0452  0.0014  0.1000  -2.6685   0.0000   0.2864
  17.500   0.7985   0.25737   0.25322  -0.0462  0.0013  0.1000  -2.6658   0.0000   0.2873
  17.600   0.8031   0.26012   0.25598  -0.0473  0.0013  0.1000  -2.6633   0.0000   0.2881
  17.700   0.8076   0.26288   0.25874  -0.0484  0.0013  0.1000  -2.6609   0.0000   0.2890
  17.800   0.8122   0.26567   0.26153  -0.0495  0.0013  0.1000  -2.6588   0.0000   0.2899
  17.900   0.8168   0.26847   0.26434  -0.0505  0.0012  0.1000  -2.6571   0.0000   0.2907
  18.000   0.8214   0.27133   0.26720  -0.0516  0.0012  0.1000  -2.6576   0.0000   0.2915
  18.100   0.8259   0.27426   0.27013  -0.0527  0.0012  0.1000  -2.6522   0.0000   0.2924
  18.200   0.8304   0.27726   0.27314  -0.0538  0.0011  0.1000  -2.6459   0.0000   0.2932
  18.300   0.8350   0.28026   0.27614  -0.0549  0.0011  0.1000  -2.6404   0.0000   0.2940
  18.400   0.8396   0.28328   0.27916  -0.0560  0.0010  0.1000  -2.6370   0.0000   0.2948
  18.500   0.8442   0.28630   0.28219  -0.0571  0.0010  0.1000  -2.6360   0.0000   0.2956
  18.600   0.8488   0.28935   0.28525  -0.0582  0.0010  0.1000  -2.6353   0.0000   0.2964
  18.700   0.8534   0.29244   0.28834  -0.0593  0.0009  0.1000  -2.6346   0.0000   0.2972
  18.800   0.8580   0.29556   0.29146  -0.0604  0.0009  0.1000  -2.6338   0.0000   0.2979
  18.900   0.8627   0.29872   0.29462  -0.0615  0.0009  0.1000  -2.6330   0.0000   0.2987
  19.000   0.8673   0.30191   0.29782  -0.0626  0.0009  0.1000  -2.6322   0.0000   0.2994
  19.100   0.8720   0.30514   0.30105  -0.0637  0.0009  0.1000  -2.6316   0.0000   0.3002
  19.200   0.8766   0.30841   0.30432  -0.0648  0.0009  0.1000  -2.6311   0.0000   0.3009
  19.300   0.8813   0.31171   0.30764  -0.0659  0.0008  0.1000  -2.6307   0.0000   0.3016
  19.400   0.8860   0.31506   0.31099  -0.0671  0.0008  0.1000  -2.6306   0.0000   0.3023
  19.500   0.8906   0.31845   0.31438  -0.0682  0.0008  0.1000  -2.6298   0.0000   0.3031
  19.600   0.8953   0.32196   0.31789  -0.0693  0.0008  0.1000  -2.6204   0.0000   0.3038
  19.700   0.8999   0.32552   0.32146  -0.0704  0.0008  0.1000  -2.6092   0.0000   0.3045
  19.800   0.9046   0.32915   0.32509  -0.0716  0.0007  0.1000  -2.5972   0.0000   0.3052
  19.900   0.9092   0.33281   0.32876  -0.0727  0.0007  0.1000  -2.5939   0.0000   0.3059
  20.000   0.9139   0.33652   0.33247  -0.0739  0.0006  0.1000  -2.5923   0.0000   0.3065


