xflr5 v6.11

 Calculated polar for: NACA 63012 AIRFOIL

 1 1 Reynolds number fixed          Mach number fixed         

 xtrf =   0.050 (top)        0.100 (bottom)
 Mach =   0.550     Re =     1.100 e 6     Ncrit =   1.000

  alpha     CL        CD       CDp       Cm    Top Xtr Bot Xtr   Cpmin    Chinge    XCp    
 ------- -------- --------- --------- -------- ------- ------- -------- --------- ---------
  -2.000  -0.2628   0.01067   0.00242  -0.0028  0.0500  0.1000  -0.7864   0.0000   0.2351
  -1.900  -0.2497   0.01066   0.00240  -0.0026  0.0500  0.1000  -0.7457   0.0000   0.2353
  -1.800  -0.2366   0.01065   0.00237  -0.0024  0.0500  0.1000  -0.7060   0.0000   0.2356
  -1.700  -0.2236   0.01063   0.00234  -0.0023  0.0500  0.1000  -0.6687   0.0000   0.2358
  -1.600  -0.2105   0.01062   0.00232  -0.0021  0.0500  0.1000  -0.6319   0.0000   0.2361
  -1.500  -0.1975   0.01061   0.00230  -0.0019  0.0500  0.1000  -0.6025   0.0000   0.2363
  -1.400  -0.1844   0.01060   0.00227  -0.0017  0.0500  0.1000  -0.5830   0.0000   0.2366
  -1.300  -0.1714   0.01060   0.00226  -0.0016  0.0500  0.1000  -0.5661   0.0000   0.2368
  -1.200  -0.1584   0.01059   0.00224  -0.0014  0.0500  0.1000  -0.5492   0.0000   0.2371
  -1.100  -0.1453   0.01058   0.00222  -0.0013  0.0500  0.1000  -0.5324   0.0000   0.2375
  -1.000  -0.1323   0.01058   0.00221  -0.0011  0.0500  0.1000  -0.5172   0.0000   0.2378
  -0.900  -0.1193   0.01057   0.00220  -0.0009  0.0500  0.1000  -0.5088   0.0000   0.2382
  -0.800  -0.1063   0.01057   0.00219  -0.0008  0.0500  0.1000  -0.5006   0.0000   0.2387
  -0.700  -0.0933   0.01057   0.00218  -0.0006  0.0500  0.1000  -0.4924   0.0000   0.2393
  -0.600  -0.0803   0.01057   0.00217  -0.0005  0.0500  0.1000  -0.4842   0.0000   0.2400
  -0.500  -0.0673   0.01057   0.00216  -0.0003  0.0500  0.1000  -0.4761   0.0000   0.2410
  -0.400  -0.0543   0.01057   0.00216  -0.0002  0.0500  0.1000  -0.4681   0.0000   0.2425
  -0.300  -0.0413   0.01057   0.00216  -0.0001  0.0500  0.1000  -0.4601   0.0000   0.2449
  -0.200  -0.0283   0.01057   0.00215   0.0001  0.0500  0.1000  -0.4522   0.0000   0.2494
  -0.100  -0.0153   0.01057   0.00215   0.0002  0.0500  0.1000  -0.4442   0.0000   0.2616
   0.000  -0.0024   0.01058   0.00216   0.0004  0.0500  0.1000  -0.4365   0.0000   0.4078
   0.100   0.0106   0.01058   0.00216   0.0005  0.0500  0.1000  -0.4422   0.0000   0.1966
   0.200   0.0236   0.01059   0.00216   0.0007  0.0500  0.1000  -0.4502   0.0000   0.2177
   0.300   0.0366   0.01060   0.00217   0.0008  0.0500  0.1000  -0.4581   0.0000   0.2238
   0.400   0.0495   0.01060   0.00218   0.0010  0.0500  0.1000  -0.4661   0.0000   0.2267
   0.500   0.0625   0.01061   0.00219   0.0011  0.0500  0.1000  -0.4741   0.0000   0.2283
   0.600   0.0755   0.01062   0.00220   0.0013  0.0500  0.1000  -0.4822   0.0000   0.2294
   0.700   0.0885   0.01063   0.00221   0.0014  0.0500  0.1000  -0.4904   0.0000   0.2301
   0.800   0.1014   0.01064   0.00223   0.0016  0.0500  0.1000  -0.4986   0.0000   0.2306
   0.900   0.1144   0.01066   0.00224   0.0017  0.0500  0.1000  -0.5068   0.0000   0.2310
   1.000   0.1274   0.01067   0.00226   0.0019  0.0500  0.1000  -0.5152   0.0000   0.2313
   1.100   0.1403   0.01068   0.00228   0.0020  0.0500  0.1000  -0.5236   0.0000   0.2315
   1.200   0.1533   0.01070   0.00230   0.0022  0.0500  0.1000  -0.5338   0.0000   0.2316
   1.300   0.1663   0.01072   0.00232   0.0024  0.0500  0.1000  -0.5535   0.0000   0.2317
   1.400   0.1793   0.01073   0.00234   0.0025  0.0500  0.1000  -0.5769   0.0000   0.2318
   1.500   0.1922   0.01075   0.00237   0.0027  0.0500  0.1000  -0.6006   0.0000   0.2318
   1.600   0.2052   0.01077   0.00240   0.0029  0.0500  0.1000  -0.6251   0.0000   0.2318
   1.700   0.2182   0.01079   0.00243   0.0031  0.0500  0.1000  -0.6597   0.0000   0.2317
   1.800   0.2312   0.01082   0.00246   0.0033  0.0500  0.1000  -0.6968   0.0000   0.2317
   1.900   0.2441   0.01084   0.00249   0.0035  0.0500  0.1000  -0.7357   0.0000   0.2316
   2.000   0.2571   0.01086   0.00253   0.0037  0.0500  0.1000  -0.7761   0.0000   0.2315
   2.100   0.2701   0.01089   0.00256   0.0039  0.0500  0.1000  -0.8171   0.0000   0.2314
   2.200   0.2831   0.01091   0.00260   0.0041  0.0500  0.1000  -0.8627   0.0000   0.2312
   2.300   0.2961   0.01094   0.00264   0.0043  0.0500  0.1000  -0.9267   0.0000   0.2311
   2.400   0.3091   0.01097   0.00268   0.0046  0.0500  0.1000  -0.9920   0.0000   0.2309
   2.500   0.3221   0.01100   0.00273   0.0048  0.0500  0.1000  -1.0588   0.0000   0.2308
   2.600   0.3350   0.01104   0.00278   0.0050  0.0490  0.1000  -1.1267   0.0000   0.2305
   2.700   0.3476   0.01110   0.00284   0.0054  0.0459  0.1000  -1.1953   0.0000   0.2301
   2.800   0.3602   0.01115   0.00290   0.0057  0.0426  0.1000  -1.2652   0.0000   0.2297
   2.900   0.3727   0.01122   0.00297   0.0060  0.0392  0.1000  -1.3365   0.0000   0.2293
   3.000   0.3853   0.01128   0.00304   0.0063  0.0364  0.1000  -1.4093   0.0000   0.2289
   3.100   0.3978   0.01135   0.00311   0.0067  0.0328  0.1000  -1.4833   0.0000   0.2285
   3.200   0.4100   0.01144   0.00320   0.0071  0.0282  0.1000  -1.5581   0.0000   0.2279
   3.300   0.4221   0.01154   0.00329   0.0076  0.0234  0.1000  -1.6344   0.0000   0.2273
   3.400   0.4343   0.01163   0.00338   0.0080  0.0191  0.1000  -1.7127   0.0000   0.2268
   3.500   0.4466   0.01171   0.00347   0.0084  0.0163  0.1000  -1.7931   0.0000   0.2263
   3.600   0.4591   0.01178   0.00356   0.0088  0.0150  0.1000  -1.8756   0.0000   0.2258
   3.700   0.4716   0.01186   0.00365   0.0093  0.0139  0.1000  -1.9598   0.0000   0.2254
   3.800   0.4841   0.01194   0.00375   0.0097  0.0130  0.1000  -2.0464   0.0000   0.2249
   3.900   0.4966   0.01202   0.00385   0.0101  0.0122  0.1000  -2.1388   0.0000   0.2244
   4.000   0.5090   0.01210   0.00395   0.0106  0.0115  0.1000  -2.2332   0.0000   0.2239
   4.100   0.5214   0.01219   0.00406   0.0111  0.0110  0.1000  -2.3296   0.0000   0.2234
   4.200   0.5338   0.01227   0.00417   0.0116  0.0106  0.1000  -2.4280   0.0000   0.2229
   4.300   0.5462   0.01236   0.00428   0.0121  0.0103  0.1000  -2.5285   0.0000   0.2224
   4.400   0.5586   0.01245   0.00440   0.0126  0.0101  0.1000  -2.6308   0.0000   0.2219
   4.500   0.5709   0.01255   0.00453   0.0132  0.0099  0.1000  -2.7351   0.0000   0.2213
   4.600   0.5832   0.01265   0.00466   0.0138  0.0097  0.1000  -2.8413   0.0000   0.2207
   4.700   0.5955   0.01275   0.00479   0.0144  0.0095  0.1000  -2.9493   0.0000   0.2201
   4.800   0.6077   0.01286   0.00493   0.0150  0.0094  0.1000  -3.0591   0.0000   0.2195
   4.900   0.6198   0.01297   0.00508   0.0156  0.0093  0.1000  -3.1707   0.0000   0.2189
   5.000   0.6318   0.01309   0.00524   0.0163  0.0091  0.1000  -3.2838   0.0000   0.2182
   5.100   0.6437   0.01322   0.00540   0.0170  0.0090  0.1000  -3.3986   0.0000   0.2175
   5.200   0.6556   0.01335   0.00557   0.0178  0.0089  0.1000  -3.5146   0.0000   0.2167
   5.300   0.6672   0.01349   0.00576   0.0185  0.0088  0.1000  -3.6318   0.0000   0.2159
   5.400   0.6787   0.01364   0.00595   0.0194  0.0087  0.1000  -3.7498   0.0000   0.2151
   5.500   0.6901   0.01380   0.00616   0.0202  0.0086  0.1000  -3.8689   0.0000   0.2142
   5.600   0.7012   0.01397   0.00639   0.0211  0.0084  0.1000  -3.9885   0.0000   0.2133
   5.700   0.7120   0.01416   0.00663   0.0221  0.0083  0.1000  -4.1072   0.0000   0.2123
   5.800   0.7226   0.01436   0.00689   0.0231  0.0081  0.1000  -4.2237   0.0000   0.2112
   5.900   0.7326   0.01459   0.00718   0.0243  0.0080  0.1000  -4.3430   0.0000   0.2100
   6.000   0.7422   0.01484   0.00750   0.0255  0.0079  0.1000  -4.4579   0.0000   0.2087
   6.100   0.7512   0.01512   0.00785   0.0267  0.0078  0.1000  -4.5670   0.0000   0.2073
   6.200   0.7594   0.01543   0.00824   0.0281  0.0077  0.1000  -4.6690   0.0000   0.2057
   6.300   0.7669   0.01578   0.00867   0.0296  0.0076  0.1000  -4.7623   0.0000   0.2040
   6.400   0.7736   0.01617   0.00914   0.0312  0.0075  0.1000  -4.8463   0.0000   0.2021
   6.500   0.7794   0.01660   0.00966   0.0329  0.0074  0.1000  -4.9203   0.0000   0.2001
   6.600   0.7837   0.01704   0.01020   0.0348  0.0074  0.1000  -4.9816   0.0000   0.1978
   6.700   0.7869   0.01751   0.01076   0.0369  0.0073  0.1000  -5.0330   0.0000   0.1952
   6.800   0.7897   0.01804   0.01139   0.0389  0.0072  0.1000  -5.0766   0.0000   0.1927
   6.900   0.7926   0.01865   0.01210   0.0409  0.0071  0.1000  -5.1183   0.0000   0.1902
   7.000   0.7953   0.01939   0.01295   0.0428  0.0069  0.1000  -5.1494   0.0000   0.1879
   7.100   0.7977   0.02021   0.01389   0.0446  0.0067  0.1000  -5.1696   0.0000   0.1857
   7.200   0.7999   0.02110   0.01490   0.0463  0.0066  0.1000  -5.1878   0.0000   0.1836
   7.300   0.8017   0.02204   0.01597   0.0479  0.0065  0.1000  -5.1995   0.0000   0.1815
   7.400   0.8026   0.02305   0.01710   0.0496  0.0064  0.1000  -5.2044   0.0000   0.1795
   7.500   0.8027   0.02410   0.01827   0.0511  0.0063  0.1000  -5.2044   0.0000   0.1774
   7.600   0.8020   0.02519   0.01948   0.0527  0.0062  0.1000  -5.2003   0.0000   0.1753
   7.700   0.8004   0.02632   0.02072   0.0541  0.0061  0.1000  -5.1929   0.0000   0.1732
   7.800   0.7979   0.02750   0.02200   0.0555  0.0061  0.1000  -5.1835   0.0000   0.1711
   7.900   0.7947   0.02871   0.02332   0.0567  0.0060  0.1000  -5.1769   0.0000   0.1691
   8.000   0.7909   0.02997   0.02468   0.0578  0.0059  0.1000  -5.1674   0.0000   0.1672
   8.100   0.7865   0.03129   0.02608   0.0588  0.0058  0.1000  -5.1546   0.0000   0.1654
   8.200   0.7816   0.03266   0.02754   0.0596  0.0057  0.1000  -5.1375   0.0000   0.1638
   8.300   0.7763   0.03409   0.02905   0.0602  0.0056  0.1000  -5.1194   0.0000   0.1623
   8.400   0.7707   0.03557   0.03061   0.0606  0.0056  0.1000  -5.1011   0.0000   0.1610
   8.500   0.7650   0.03711   0.03222   0.0609  0.0055  0.1000  -5.0827   0.0000   0.1599
   8.600   0.7591   0.03871   0.03389   0.0609  0.0055  0.1000  -5.0640   0.0000   0.1591
   8.700   0.7530   0.04038   0.03562   0.0608  0.0054  0.1000  -5.0441   0.0000   0.1584
   8.800   0.7468   0.04212   0.03742   0.0605  0.0054  0.1000  -5.0229   0.0000   0.1580
   8.900   0.7405   0.04394   0.03930   0.0600  0.0054  0.1000  -5.0003   0.0000   0.1578
   9.000   0.7340   0.04583   0.04125   0.0593  0.0054  0.1000  -4.9762   0.0000   0.1579
   9.100   0.7276   0.04782   0.04329   0.0584  0.0054  0.1000  -4.9505   0.0000   0.1582
   9.200   0.7211   0.04988   0.04540   0.0573  0.0053  0.1000  -4.9231   0.0000   0.1587
   9.300   0.7145   0.05204   0.04760   0.0561  0.0053  0.1000  -4.8937   0.0000   0.1595
   9.400   0.7081   0.05429   0.04989   0.0547  0.0053  0.1000  -4.8620   0.0000   0.1606
   9.500   0.7016   0.05664   0.05228   0.0532  0.0053  0.1000  -4.8277   0.0000   0.1619
   9.600   0.6952   0.05909   0.05477   0.0515  0.0053  0.1000  -4.7903   0.0000   0.1635
   9.700   0.6890   0.06164   0.05735   0.0497  0.0053  0.1000  -4.7494   0.0000   0.1653
   9.800   0.6828   0.06430   0.06004   0.0477  0.0053  0.1000  -4.7042   0.0000   0.1674
   9.900   0.6769   0.06707   0.06283   0.0457  0.0053  0.1000  -4.6537   0.0000   0.1696
  10.000   0.6711   0.06995   0.06573   0.0437  0.0053  0.1000  -4.5972   0.0000   0.1720
  10.100   0.6657   0.07294   0.06874   0.0416  0.0053  0.1000  -4.5335   0.0000   0.1745
  10.200   0.6607   0.07614   0.07195   0.0395  0.0053  0.1000  -4.4572   0.0000   0.1772
  10.300   0.6560   0.07920   0.07500   0.0376  0.0053  0.1000  -4.3845   0.0000   0.1797
  10.400   0.6515   0.08204   0.07783   0.0358  0.0053  0.1000  -4.3197   0.0000   0.1819
  10.500   0.6472   0.08475   0.08054   0.0342  0.0053  0.1000  -4.2597   0.0000   0.1840
  10.600   0.6433   0.08739   0.08318   0.0326  0.0053  0.1000  -4.2018   0.0000   0.1860
  10.700   0.6395   0.08998   0.08576   0.0311  0.0053  0.1000  -4.1452   0.0000   0.1880
  10.800   0.6361   0.09253   0.08830   0.0296  0.0052  0.1000  -4.0914   0.0000   0.1900
  10.900   0.6329   0.09504   0.09081   0.0282  0.0052  0.1000  -4.0397   0.0000   0.1920
  11.000   0.6301   0.09752   0.09328   0.0268  0.0052  0.1000  -3.9890   0.0000   0.1939
  11.100   0.6275   0.09998   0.09573   0.0254  0.0052  0.1000  -3.9394   0.0000   0.1959
  11.200   0.6252   0.10241   0.09816   0.0240  0.0052  0.1000  -3.8907   0.0000   0.1978
  11.300   0.6231   0.10482   0.10057   0.0227  0.0051  0.1000  -3.8425   0.0000   0.1997
  11.400   0.6214   0.10722   0.10296   0.0214  0.0051  0.1000  -3.7949   0.0000   0.2016
  11.500   0.6199   0.10959   0.10533   0.0201  0.0050  0.1000  -3.7482   0.0000   0.2036
  11.600   0.6186   0.11194   0.10768   0.0188  0.0050  0.1000  -3.7027   0.0000   0.2055
  11.700   0.6177   0.11427   0.11001   0.0176  0.0049  0.1000  -3.6587   0.0000   0.2074
  11.800   0.6171   0.11658   0.11231   0.0164  0.0048  0.1000  -3.6169   0.0000   0.2092
  11.900   0.6167   0.11886   0.11459   0.0151  0.0047  0.1000  -3.5766   0.0000   0.2111
  12.000   0.6163   0.12118   0.11690   0.0139  0.0047  0.1000  -3.5305   0.0000   0.2130
  12.100   0.6162   0.12346   0.11918   0.0127  0.0046  0.1000  -3.4868   0.0000   0.2148
  12.200   0.6164   0.12572   0.12144   0.0116  0.0045  0.1000  -3.4463   0.0000   0.2166
  12.300   0.6168   0.12794   0.12366   0.0104  0.0045  0.1000  -3.4090   0.0000   0.2184
  12.400   0.6175   0.13014   0.12586   0.0093  0.0044  0.1000  -3.3730   0.0000   0.2202
  12.500   0.6184   0.13233   0.12804   0.0082  0.0044  0.1000  -3.3399   0.0000   0.2219
  12.600   0.6195   0.13448   0.13019   0.0071  0.0043  0.1000  -3.3124   0.0000   0.2236
  12.700   0.6208   0.13662   0.13233   0.0060  0.0043  0.1000  -3.2866   0.0000   0.2253
  12.800   0.6223   0.13875   0.13446   0.0049  0.0042  0.1000  -3.2625   0.0000   0.2269
  12.900   0.6239   0.14086   0.13657   0.0039  0.0042  0.1000  -3.2392   0.0000   0.2285
  13.000   0.6257   0.14296   0.13867   0.0028  0.0041  0.1000  -3.2165   0.0000   0.2301
  13.100   0.6275   0.14505   0.14076   0.0018  0.0040  0.1000  -3.1951   0.0000   0.2317
  13.200   0.6296   0.14712   0.14283   0.0008  0.0039  0.1000  -3.1758   0.0000   0.2333
  13.300   0.6318   0.14916   0.14488  -0.0002  0.0038  0.1000  -3.1594   0.0000   0.2348
  13.400   0.6339   0.15125   0.14697  -0.0013  0.0037  0.1000  -3.1341   0.0000   0.2363
  13.500   0.6361   0.15335   0.14907  -0.0023  0.0037  0.1000  -3.1090   0.0000   0.2378
  13.600   0.6385   0.15542   0.15113  -0.0033  0.0036  0.1000  -3.0873   0.0000   0.2393
  13.700   0.6410   0.15748   0.15320  -0.0043  0.0035  0.1000  -3.0674   0.0000   0.2408
  13.800   0.6436   0.15953   0.15524  -0.0053  0.0035  0.1000  -3.0509   0.0000   0.2422
  13.900   0.6463   0.16157   0.15729  -0.0063  0.0034  0.1000  -3.0380   0.0000   0.2436
  14.000   0.6490   0.16360   0.15932  -0.0073  0.0034  0.1000  -3.0259   0.0000   0.2450
  14.100   0.6519   0.16562   0.16134  -0.0083  0.0033  0.1000  -3.0145   0.0000   0.2464
  14.200   0.6548   0.16765   0.16337  -0.0093  0.0033  0.1000  -3.0031   0.0000   0.2478
  14.300   0.6578   0.16969   0.16541  -0.0103  0.0032  0.1000  -2.9925   0.0000   0.2491
  14.400   0.6608   0.17169   0.16742  -0.0113  0.0031  0.1000  -2.9834   0.0000   0.2504
  14.500   0.6640   0.17369   0.16942  -0.0123  0.0030  0.1000  -2.9768   0.0000   0.2517
  14.600   0.6671   0.17574   0.17146  -0.0133  0.0029  0.1000  -2.9621   0.0000   0.2530
  14.700   0.6702   0.17781   0.17354  -0.0143  0.0029  0.1000  -2.9438   0.0000   0.2543
  14.800   0.6735   0.17989   0.17561  -0.0153  0.0028  0.1000  -2.9289   0.0000   0.2556
  14.900   0.6768   0.18193   0.17766  -0.0163  0.0028  0.1000  -2.9162   0.0000   0.2568
  15.000   0.6801   0.18397   0.17970  -0.0172  0.0027  0.1000  -2.9037   0.0000   0.2580
  15.100   0.6835   0.18601   0.18174  -0.0182  0.0027  0.1000  -2.8954   0.0000   0.2592
  15.200   0.6870   0.18804   0.18378  -0.0192  0.0026  0.1000  -2.8900   0.0000   0.2604
  15.300   0.6905   0.19008   0.18582  -0.0202  0.0026  0.1000  -2.8851   0.0000   0.2616
  15.400   0.6941   0.19212   0.18786  -0.0212  0.0025  0.1000  -2.8803   0.0000   0.2627
  15.500   0.6977   0.19416   0.18990  -0.0222  0.0025  0.1000  -2.8759   0.0000   0.2639
  15.600   0.7013   0.19619   0.19194  -0.0231  0.0024  0.1000  -2.8728   0.0000   0.2650
  15.700   0.7050   0.19822   0.19398  -0.0241  0.0023  0.1000  -2.8719   0.0000   0.2661
  15.800   0.7086   0.20032   0.19607  -0.0251  0.0023  0.1000  -2.8604   0.0000   0.2672
  15.900   0.7123   0.20246   0.19821  -0.0261  0.0022  0.1000  -2.8457   0.0000   0.2683
  16.000   0.7160   0.20456   0.20032  -0.0271  0.0021  0.1000  -2.8343   0.0000   0.2694
  16.100   0.7197   0.20666   0.20242  -0.0281  0.0021  0.1000  -2.8256   0.0000   0.2704
  16.200   0.7235   0.20876   0.20452  -0.0291  0.0020  0.1000  -2.8172   0.0000   0.2715
  16.300   0.7274   0.21086   0.20663  -0.0301  0.0020  0.1000  -2.8091   0.0000   0.2725
  16.400   0.7313   0.21297   0.20874  -0.0311  0.0020  0.1000  -2.8014   0.0000   0.2735
  16.500   0.7352   0.21508   0.21085  -0.0321  0.0019  0.1000  -2.7985   0.0000   0.2745
  16.600   0.7391   0.21719   0.21297  -0.0331  0.0019  0.1000  -2.7980   0.0000   0.2755
  16.700   0.7431   0.21932   0.21510  -0.0341  0.0019  0.1000  -2.7975   0.0000   0.2765
  16.800   0.7470   0.22144   0.21722  -0.0350  0.0018  0.1000  -2.7977   0.0000   0.2774
  16.900   0.7510   0.22357   0.21936  -0.0360  0.0018  0.1000  -2.7994   0.0000   0.2784
  17.000   0.7550   0.22573   0.22152  -0.0370  0.0017  0.1000  -2.7973   0.0000   0.2793
  17.100   0.7590   0.22795   0.22374  -0.0381  0.0016  0.1000  -2.7839   0.0000   0.2803
  17.200   0.7629   0.23018   0.22598  -0.0391  0.0016  0.1000  -2.7726   0.0000   0.2812
  17.300   0.7669   0.23240   0.22820  -0.0401  0.0015  0.1000  -2.7647   0.0000   0.2822
  17.400   0.7710   0.23461   0.23041  -0.0411  0.0015  0.1000  -2.7594   0.0000   0.2831
  17.500   0.7751   0.23682   0.23263  -0.0421  0.0015  0.1000  -2.7542   0.0000   0.2840
  17.600   0.7792   0.23906   0.23487  -0.0431  0.0014  0.1000  -2.7491   0.0000   0.2848
  17.700   0.7833   0.24129   0.23710  -0.0441  0.0014  0.1000  -2.7441   0.0000   0.2857
  17.800   0.7875   0.24355   0.23936  -0.0451  0.0014  0.1000  -2.7394   0.0000   0.2866
  17.900   0.7917   0.24580   0.24162  -0.0462  0.0013  0.1000  -2.7349   0.0000   0.2874
  18.000   0.7958   0.24807   0.24389  -0.0472  0.0013  0.1000  -2.7307   0.0000   0.2882
  18.100   0.8000   0.25033   0.24616  -0.0482  0.0013  0.1000  -2.7315   0.0000   0.2891
  18.200   0.8043   0.25262   0.24845  -0.0492  0.0013  0.1000  -2.7352   0.0000   0.2899
  18.300   0.8085   0.25491   0.25074  -0.0502  0.0012  0.1000  -2.7404   0.0000   0.2907
  18.400   0.8127   0.25731   0.25315  -0.0513  0.0012  0.1000  -2.7326   0.0000   0.2915
  18.500   0.8168   0.25973   0.25558  -0.0523  0.0011  0.1000  -2.7226   0.0000   0.2923
  18.600   0.8210   0.26215   0.25800  -0.0534  0.0011  0.1000  -2.7142   0.0000   0.2931
  18.700   0.8252   0.26456   0.26041  -0.0544  0.0010  0.1000  -2.7085   0.0000   0.2939
  18.800   0.8295   0.26697   0.26282  -0.0554  0.0010  0.1000  -2.7054   0.0000   0.2947
  18.900   0.8337   0.26937   0.26523  -0.0565  0.0010  0.1000  -2.7026   0.0000   0.2954
  19.000   0.8380   0.27180   0.26766  -0.0575  0.0010  0.1000  -2.6998   0.0000   0.2962
  19.100   0.8423   0.27426   0.27012  -0.0586  0.0010  0.1000  -2.6971   0.0000   0.2969
  19.200   0.8465   0.27671   0.27259  -0.0596  0.0009  0.1000  -2.6945   0.0000   0.2976
  19.300   0.8508   0.27919   0.27506  -0.0606  0.0009  0.1000  -2.6922   0.0000   0.2984
  19.400   0.8551   0.28167   0.27755  -0.0617  0.0009  0.1000  -2.6901   0.0000   0.2991
  19.500   0.8594   0.28418   0.28006  -0.0627  0.0009  0.1000  -2.6882   0.0000   0.2998
  19.600   0.8637   0.28670   0.28259  -0.0638  0.0009  0.1000  -2.6865   0.0000   0.3005
  19.700   0.8681   0.28923   0.28513  -0.0648  0.0009  0.1000  -2.6852   0.0000   0.3012
  19.800   0.8724   0.29179   0.28769  -0.0659  0.0008  0.1000  -2.6848   0.0000   0.3019
  19.900   0.8767   0.29437   0.29027  -0.0670  0.0008  0.1000  -2.6797   0.0000   0.3025
  20.000   0.8810   0.29708   0.29299  -0.0680  0.0008  0.1000  -2.6685   0.0000   0.3032


