xflr5 v6.11

 Calculated polar for: NACA 63012 AIRFOIL

 1 1 Reynolds number fixed          Mach number fixed         

 xtrf =   0.050 (top)        0.100 (bottom)
 Mach =   0.500     Re =     0.100 e 6     Ncrit =   1.000

  alpha     CL        CD       CDp       Cm    Top Xtr Bot Xtr   Cpmin    Chinge    XCp    
 ------- -------- --------- --------- -------- ------- ------- -------- --------- ---------
  -2.000  -0.2338   0.01931   0.00515  -0.0051  0.0500  0.1000  -0.7121   0.0000   0.2236
  -1.900  -0.2222   0.01927   0.00508  -0.0048  0.0500  0.1000  -0.6778   0.0000   0.2239
  -1.800  -0.2107   0.01923   0.00500  -0.0045  0.0500  0.1000  -0.6440   0.0000   0.2241
  -1.700  -0.1991   0.01920   0.00494  -0.0043  0.0500  0.1000  -0.6128   0.0000   0.2243
  -1.600  -0.1875   0.01917   0.00487  -0.0040  0.0500  0.1000  -0.5871   0.0000   0.2245
  -1.500  -0.1759   0.01914   0.00482  -0.0037  0.0500  0.1000  -0.5629   0.0000   0.2247
  -1.400  -0.1643   0.01912   0.00476  -0.0034  0.0500  0.1000  -0.5477   0.0000   0.2249
  -1.300  -0.1527   0.01909   0.00471  -0.0032  0.0500  0.1000  -0.5344   0.0000   0.2251
  -1.200  -0.1411   0.01907   0.00466  -0.0029  0.0500  0.1000  -0.5216   0.0000   0.2253
  -1.100  -0.1295   0.01905   0.00462  -0.0026  0.0500  0.1000  -0.5090   0.0000   0.2256
  -1.000  -0.1178   0.01903   0.00458  -0.0024  0.0500  0.1000  -0.4964   0.0000   0.2258
  -0.900  -0.1062   0.01902   0.00455  -0.0021  0.0500  0.1000  -0.4837   0.0000   0.2261
  -0.800  -0.0946   0.01901   0.00452  -0.0018  0.0500  0.1000  -0.4735   0.0000   0.2264
  -0.700  -0.0830   0.01900   0.00449  -0.0016  0.0500  0.1000  -0.4662   0.0000   0.2268
  -0.600  -0.0714   0.01899   0.00447  -0.0013  0.0500  0.1000  -0.4590   0.0000   0.2273
  -0.500  -0.0597   0.01898   0.00445  -0.0011  0.0500  0.1000  -0.4519   0.0000   0.2279
  -0.400  -0.0481   0.01898   0.00444  -0.0008  0.0500  0.1000  -0.4448   0.0000   0.2288
  -0.300  -0.0365   0.01897   0.00442  -0.0006  0.0500  0.1000  -0.4377   0.0000   0.2303
  -0.200  -0.0249   0.01897   0.00442  -0.0003  0.0500  0.1000  -0.4307   0.0000   0.2331
  -0.100  -0.0133   0.01898   0.00441  -0.0001  0.0500  0.1000  -0.4238   0.0000   0.2409
   0.000  -0.0016   0.01898   0.00441   0.0002  0.0500  0.1000  -0.4169   0.0000   0.3581
   0.100   0.0100   0.01899   0.00442   0.0004  0.0500  0.1000  -0.4235   0.0000   0.2022
   0.200   0.0216   0.01899   0.00443   0.0007  0.0500  0.1000  -0.4305   0.0000   0.2140
   0.300   0.0332   0.01901   0.00444   0.0009  0.0500  0.1000  -0.4376   0.0000   0.2176
   0.400   0.0448   0.01902   0.00445   0.0012  0.0500  0.1000  -0.4447   0.0000   0.2193
   0.500   0.0564   0.01903   0.00447   0.0014  0.0500  0.1000  -0.4519   0.0000   0.2202
   0.600   0.0680   0.01905   0.00449   0.0017  0.0500  0.1000  -0.4591   0.0000   0.2208
   0.700   0.0796   0.01907   0.00452   0.0020  0.0500  0.1000  -0.4664   0.0000   0.2212
   0.800   0.0912   0.01909   0.00455   0.0022  0.0500  0.1000  -0.4738   0.0000   0.2215
   0.900   0.1027   0.01911   0.00459   0.0025  0.0500  0.1000  -0.4813   0.0000   0.2217
   1.000   0.1143   0.01914   0.00463   0.0027  0.0500  0.1000  -0.4889   0.0000   0.2218
   1.100   0.1259   0.01917   0.00467   0.0030  0.0500  0.1000  -0.4970   0.0000   0.2219
   1.200   0.1374   0.01920   0.00472   0.0033  0.0500  0.1000  -0.5120   0.0000   0.2219
   1.300   0.1490   0.01923   0.00477   0.0036  0.0500  0.1000  -0.5285   0.0000   0.2219
   1.400   0.1605   0.01927   0.00482   0.0038  0.0500  0.1000  -0.5451   0.0000   0.2219
   1.500   0.1721   0.01930   0.00488   0.0041  0.0500  0.1000  -0.5624   0.0000   0.2218
   1.600   0.1836   0.01934   0.00495   0.0044  0.0500  0.1000  -0.5826   0.0000   0.2217
   1.700   0.1951   0.01938   0.00501   0.0047  0.0500  0.1000  -0.6077   0.0000   0.2216
   1.800   0.2066   0.01943   0.00508   0.0050  0.0500  0.1000  -0.6371   0.0000   0.2215
   1.900   0.2181   0.01948   0.00516   0.0053  0.0500  0.1000  -0.6707   0.0000   0.2214
   2.000   0.2296   0.01953   0.00524   0.0056  0.0500  0.1000  -0.7048   0.0000   0.2212
   2.100   0.2410   0.01958   0.00533   0.0059  0.0500  0.1000  -0.7397   0.0000   0.2211
   2.200   0.2525   0.01964   0.00542   0.0062  0.0500  0.1000  -0.7768   0.0000   0.2209
   2.300   0.2639   0.01970   0.00551   0.0065  0.0500  0.1000  -0.8143   0.0000   0.2207
   2.400   0.2753   0.01976   0.00562   0.0069  0.0500  0.1000  -0.8541   0.0000   0.2205
   2.500   0.2867   0.01982   0.00572   0.0072  0.0500  0.1000  -0.9045   0.0000   0.2203
   2.600   0.2980   0.01989   0.00583   0.0075  0.0500  0.1000  -0.9589   0.0000   0.2200
   2.700   0.3094   0.01996   0.00595   0.0079  0.0500  0.1000  -1.0142   0.0000   0.2198
   2.800   0.3207   0.02004   0.00607   0.0083  0.0500  0.1000  -1.0704   0.0000   0.2195
   2.900   0.3320   0.02012   0.00620   0.0086  0.0500  0.1000  -1.1274   0.0000   0.2192
   3.000   0.3433   0.02020   0.00633   0.0090  0.0500  0.1000  -1.1854   0.0000   0.2189
   3.100   0.3545   0.02029   0.00647   0.0094  0.0500  0.1000  -1.2468   0.0000   0.2186
   3.200   0.3657   0.02038   0.00662   0.0098  0.0500  0.1000  -1.3090   0.0000   0.2183
   3.300   0.3768   0.02047   0.00677   0.0102  0.0500  0.1000  -1.3721   0.0000   0.2179
   3.400   0.3879   0.02057   0.00693   0.0106  0.0500  0.1000  -1.4360   0.0000   0.2176
   3.500   0.3990   0.02068   0.00710   0.0111  0.0500  0.1000  -1.5007   0.0000   0.2172
   3.600   0.4100   0.02079   0.00727   0.0115  0.0500  0.1000  -1.5661   0.0000   0.2168
   3.700   0.4210   0.02090   0.00745   0.0120  0.0500  0.1000  -1.6322   0.0000   0.2163
   3.800   0.4319   0.02103   0.00765   0.0125  0.0500  0.1000  -1.6989   0.0000   0.2159
   3.900   0.4428   0.02115   0.00784   0.0129  0.0500  0.1000  -1.7663   0.0000   0.2154
   4.000   0.4535   0.02129   0.00805   0.0135  0.0500  0.1000  -1.8341   0.0000   0.2149
   4.100   0.4642   0.02143   0.00827   0.0140  0.0500  0.1000  -1.9023   0.0000   0.2144
   4.200   0.4748   0.02158   0.00850   0.0145  0.0500  0.1000  -1.9708   0.0000   0.2139
   4.300   0.4853   0.02174   0.00875   0.0151  0.0500  0.1000  -2.0394   0.0000   0.2133
   4.400   0.4957   0.02191   0.00900   0.0157  0.0500  0.1000  -2.1080   0.0000   0.2127
   4.500   0.5060   0.02209   0.00927   0.0163  0.0500  0.1000  -2.1764   0.0000   0.2121
   4.600   0.5156   0.02232   0.00956   0.0170  0.0473  0.1000  -2.2462   0.0000   0.2113
   4.700   0.5249   0.02257   0.00986   0.0177  0.0436  0.1000  -2.3173   0.0000   0.2104
   4.800   0.5340   0.02283   0.01018   0.0184  0.0404  0.1000  -2.3884   0.0000   0.2095
   4.900   0.5432   0.02309   0.01051   0.0191  0.0377  0.1000  -2.4598   0.0000   0.2087
   5.000   0.5521   0.02337   0.01085   0.0199  0.0354  0.1000  -2.5311   0.0000   0.2078
   5.100   0.5610   0.02366   0.01120   0.0207  0.0333  0.1000  -2.6022   0.0000   0.2069
   5.200   0.5696   0.02396   0.01157   0.0215  0.0314  0.1000  -2.6731   0.0000   0.2059
   5.300   0.5781   0.02427   0.01196   0.0223  0.0297  0.1000  -2.7431   0.0000   0.2049
   5.400   0.5864   0.02459   0.01236   0.0232  0.0282  0.1000  -2.8129   0.0000   0.2039
   5.500   0.5944   0.02493   0.01278   0.0241  0.0269  0.1000  -2.8818   0.0000   0.2029
   5.600   0.6023   0.02528   0.01322   0.0250  0.0256  0.1000  -2.9487   0.0000   0.2017
   5.700   0.6099   0.02564   0.01367   0.0260  0.0245  0.1000  -3.0159   0.0000   0.2006
   5.800   0.6173   0.02603   0.01413   0.0269  0.0235  0.1000  -3.0821   0.0000   0.1994
   5.900   0.6245   0.02643   0.01463   0.0280  0.0226  0.1000  -3.1446   0.0000   0.1982
   6.000   0.6316   0.02685   0.01515   0.0290  0.0217  0.1000  -3.2069   0.0000   0.1970
   6.200   0.6452   0.02775   0.01624   0.0310  0.0202  0.1000  -3.3359   0.0000   0.1946
   6.300   0.6518   0.02825   0.01684   0.0321  0.0196  0.1000  -3.3967   0.0000   0.1934
   6.400   0.6584   0.02877   0.01747   0.0331  0.0190  0.1000  -3.4568   0.0000   0.1922
   6.500   0.6647   0.02930   0.01811   0.0342  0.0184  0.1000  -3.5162   0.0000   0.1909
   6.600   0.6707   0.02986   0.01877   0.0353  0.0179  0.1000  -3.5754   0.0000   0.1897
   6.700   0.6767   0.03048   0.01950   0.0364  0.0175  0.1000  -3.6255   0.0000   0.1884
   6.800   0.6826   0.03114   0.02028   0.0374  0.0171  0.1000  -3.6730   0.0000   0.1872
   6.900   0.6883   0.03184   0.02112   0.0385  0.0166  0.1000  -3.7182   0.0000   0.1860
   7.000   0.6938   0.03259   0.02200   0.0395  0.0162  0.1000  -3.7613   0.0000   0.1849
   7.100   0.6988   0.03338   0.02292   0.0405  0.0159  0.1000  -3.8020   0.0000   0.1837
   7.200   0.7034   0.03422   0.02389   0.0415  0.0156  0.1000  -3.8412   0.0000   0.1826
   7.300   0.7074   0.03515   0.02495   0.0425  0.0153  0.1000  -3.8745   0.0000   0.1815
   7.400   0.7105   0.03615   0.02610   0.0434  0.0151  0.1000  -3.8999   0.0000   0.1803
   7.500   0.7128   0.03721   0.02731   0.0444  0.0148  0.1000  -3.9202   0.0000   0.1791
   7.600   0.7141   0.03831   0.02855   0.0453  0.0146  0.1000  -3.9360   0.0000   0.1778
   7.700   0.7145   0.03945   0.02984   0.0461  0.0144  0.1000  -3.9478   0.0000   0.1766
   7.800   0.7140   0.04065   0.03117   0.0468  0.0142  0.1000  -3.9561   0.0000   0.1754
   7.900   0.7128   0.04188   0.03253   0.0475  0.0140  0.1000  -3.9611   0.0000   0.1742
   8.000   0.7108   0.04317   0.03394   0.0480  0.0138  0.1000  -3.9629   0.0000   0.1731
   8.100   0.7081   0.04452   0.03541   0.0484  0.0137  0.1000  -3.9615   0.0000   0.1722
   8.200   0.7049   0.04592   0.03693   0.0486  0.0136  0.1000  -3.9570   0.0000   0.1714
   8.300   0.7011   0.04740   0.03851   0.0487  0.0135  0.1000  -3.9494   0.0000   0.1707
   8.400   0.6969   0.04895   0.04016   0.0486  0.0135  0.1000  -3.9385   0.0000   0.1703
   8.500   0.6922   0.05059   0.04189   0.0483  0.0134  0.1000  -3.9244   0.0000   0.1701
   8.600   0.6872   0.05231   0.04370   0.0479  0.0134  0.1000  -3.9072   0.0000   0.1700
   8.700   0.6818   0.05414   0.04560   0.0473  0.0133  0.1000  -3.8847   0.0000   0.1703
   8.800   0.6761   0.05608   0.04762   0.0464  0.0133  0.1000  -3.8578   0.0000   0.1707
   8.900   0.6701   0.05812   0.04973   0.0454  0.0133  0.1000  -3.8282   0.0000   0.1715
   9.000   0.6640   0.06027   0.05194   0.0442  0.0133  0.1000  -3.7962   0.0000   0.1725
   9.100   0.6578   0.06253   0.05426   0.0429  0.0132  0.1000  -3.7605   0.0000   0.1738
   9.200   0.6516   0.06490   0.05668   0.0413  0.0132  0.1000  -3.7211   0.0000   0.1753
   9.300   0.6454   0.06738   0.05920   0.0397  0.0132  0.1000  -3.6778   0.0000   0.1772
   9.400   0.6393   0.06996   0.06181   0.0379  0.0132  0.1000  -3.6309   0.0000   0.1792
   9.500   0.6335   0.07262   0.06450   0.0361  0.0132  0.1000  -3.5805   0.0000   0.1814
   9.600   0.6279   0.07535   0.06725   0.0342  0.0132  0.1000  -3.5271   0.0000   0.1838
   9.700   0.6228   0.07812   0.07004   0.0324  0.0131  0.1000  -3.4715   0.0000   0.1863
   9.800   0.6181   0.08092   0.07285   0.0305  0.0131  0.1000  -3.4145   0.0000   0.1887
   9.900   0.6140   0.08371   0.07565   0.0288  0.0131  0.1000  -3.3569   0.0000   0.1912
  10.000   0.6104   0.08647   0.07841   0.0272  0.0130  0.1000  -3.2995   0.0000   0.1935
  10.100   0.6073   0.08914   0.08108   0.0256  0.0129  0.1000  -3.2450   0.0000   0.1958
  10.200   0.6044   0.09173   0.08366   0.0242  0.0129  0.1000  -3.1941   0.0000   0.1979
  10.300   0.6018   0.09424   0.08616   0.0228  0.0128  0.1000  -3.1464   0.0000   0.1999
  10.400   0.5995   0.09668   0.08860   0.0215  0.0127  0.1000  -3.1016   0.0000   0.2019
  10.500   0.5974   0.09906   0.09097   0.0202  0.0126  0.1000  -3.0595   0.0000   0.2039
  10.600   0.5957   0.10139   0.09329   0.0189  0.0125  0.1000  -3.0200   0.0000   0.2058
  10.700   0.5943   0.10367   0.09556   0.0177  0.0124  0.1000  -2.9831   0.0000   0.2077
  10.800   0.5932   0.10590   0.09779   0.0165  0.0123  0.1000  -2.9487   0.0000   0.2095
  10.900   0.5923   0.10809   0.09997   0.0154  0.0122  0.1000  -2.9167   0.0000   0.2113
  11.000   0.5918   0.11024   0.10211   0.0143  0.0121  0.1000  -2.8872   0.0000   0.2131
  11.100   0.5915   0.11235   0.10422   0.0132  0.0120  0.1000  -2.8599   0.0000   0.2148
  11.200   0.5915   0.11443   0.10629   0.0121  0.0119  0.1000  -2.8346   0.0000   0.2165
  11.300   0.5917   0.11648   0.10833   0.0111  0.0118  0.1000  -2.8116   0.0000   0.2182
  11.400   0.5921   0.11850   0.11035   0.0101  0.0117  0.1000  -2.7924   0.0000   0.2199
  11.500   0.5928   0.12050   0.11235   0.0090  0.0116  0.1000  -2.7741   0.0000   0.2215
  11.600   0.5936   0.12248   0.11433   0.0080  0.0116  0.1000  -2.7566   0.0000   0.2231
  11.700   0.5945   0.12444   0.11628   0.0071  0.0116  0.1000  -2.7401   0.0000   0.2247
  11.800   0.5957   0.12638   0.11822   0.0061  0.0115  0.1000  -2.7253   0.0000   0.2263
  11.900   0.5968   0.12835   0.12018   0.0051  0.0114  0.1000  -2.7067   0.0000   0.2279
  12.000   0.5980   0.13036   0.12218   0.0041  0.0114  0.1000  -2.6849   0.0000   0.2295
  12.100   0.5994   0.13235   0.12417   0.0031  0.0113  0.1000  -2.6632   0.0000   0.2311
  12.200   0.6008   0.13433   0.12615   0.0021  0.0112  0.1000  -2.6420   0.0000   0.2327
  12.300   0.6024   0.13630   0.12812   0.0011  0.0110  0.1000  -2.6215   0.0000   0.2343
  12.400   0.6041   0.13825   0.13007   0.0001  0.0109  0.1000  -2.6023   0.0000   0.2358
  12.500   0.6060   0.14018   0.13199  -0.0009  0.0107  0.1000  -2.5846   0.0000   0.2374
  12.600   0.6080   0.14209   0.13390  -0.0019  0.0106  0.1000  -2.5690   0.0000   0.2388
  12.700   0.6102   0.14397   0.13579  -0.0028  0.0105  0.1000  -2.5566   0.0000   0.2403
  12.800   0.6126   0.14584   0.13765  -0.0038  0.0103  0.1000  -2.5482   0.0000   0.2417
  12.900   0.6150   0.14768   0.13949  -0.0047  0.0102  0.1000  -2.5412   0.0000   0.2431
  13.000   0.6176   0.14950   0.14132  -0.0056  0.0101  0.1000  -2.5350   0.0000   0.2444
  13.100   0.6202   0.15132   0.14314  -0.0065  0.0101  0.1000  -2.5289   0.0000   0.2458
  13.200   0.6229   0.15314   0.14495  -0.0074  0.0100  0.1000  -2.5228   0.0000   0.2471
  13.300   0.6257   0.15495   0.14677  -0.0084  0.0100  0.1000  -2.5171   0.0000   0.2484
  13.400   0.6286   0.15675   0.14857  -0.0093  0.0099  0.1000  -2.5124   0.0000   0.2497
  13.500   0.6315   0.15853   0.15036  -0.0102  0.0099  0.1000  -2.5090   0.0000   0.2509
  13.600   0.6344   0.16038   0.15220  -0.0111  0.0098  0.1000  -2.4988   0.0000   0.2522
  13.700   0.6372   0.16228   0.15410  -0.0121  0.0096  0.1000  -2.4838   0.0000   0.2536
  13.800   0.6400   0.16416   0.15599  -0.0130  0.0095  0.1000  -2.4692   0.0000   0.2549
  13.900   0.6430   0.16604   0.15787  -0.0140  0.0094  0.1000  -2.4556   0.0000   0.2562
  14.000   0.6460   0.16791   0.15973  -0.0149  0.0092  0.1000  -2.4442   0.0000   0.2575
  14.100   0.6491   0.16975   0.16158  -0.0159  0.0091  0.1000  -2.4378   0.0000   0.2587
  14.200   0.6524   0.17158   0.16341  -0.0168  0.0089  0.1000  -2.4330   0.0000   0.2599
  14.300   0.6556   0.17339   0.16523  -0.0177  0.0088  0.1000  -2.4296   0.0000   0.2611
  14.400   0.6590   0.17519   0.16703  -0.0187  0.0087  0.1000  -2.4269   0.0000   0.2622
  14.500   0.6624   0.17699   0.16883  -0.0196  0.0087  0.1000  -2.4242   0.0000   0.2634
  14.600   0.6658   0.17878   0.17063  -0.0205  0.0086  0.1000  -2.4214   0.0000   0.2645
  14.700   0.6693   0.18058   0.17243  -0.0214  0.0086  0.1000  -2.4189   0.0000   0.2656
  14.800   0.6728   0.18237   0.17422  -0.0224  0.0085  0.1000  -2.4173   0.0000   0.2667
  14.900   0.6764   0.18415   0.17600  -0.0233  0.0084  0.1000  -2.4170   0.0000   0.2677
  15.000   0.6800   0.18592   0.17778  -0.0242  0.0083  0.1000  -2.4169   0.0000   0.2688
  15.100   0.6834   0.18782   0.17968  -0.0252  0.0082  0.1000  -2.4039   0.0000   0.2699
  15.200   0.6869   0.18971   0.18158  -0.0261  0.0081  0.1000  -2.3918   0.0000   0.2711
  15.300   0.6905   0.19159   0.18346  -0.0271  0.0079  0.1000  -2.3811   0.0000   0.2722
  15.400   0.6941   0.19346   0.18533  -0.0281  0.0078  0.1000  -2.3734   0.0000   0.2732
  15.500   0.6977   0.19531   0.18718  -0.0290  0.0077  0.1000  -2.3701   0.0000   0.2743
  15.600   0.7014   0.19715   0.18902  -0.0300  0.0075  0.1000  -2.3682   0.0000   0.2753
  15.700   0.7052   0.19898   0.19086  -0.0309  0.0075  0.1000  -2.3670   0.0000   0.2763
  15.800   0.7090   0.20081   0.19269  -0.0319  0.0074  0.1000  -2.3660   0.0000   0.2773
  15.900   0.7128   0.20263   0.19452  -0.0328  0.0074  0.1000  -2.3650   0.0000   0.2782
  16.000   0.7167   0.20447   0.19636  -0.0338  0.0073  0.1000  -2.3642   0.0000   0.2792
  16.100   0.7206   0.20630   0.19819  -0.0347  0.0072  0.1000  -2.3639   0.0000   0.2801
  16.200   0.7245   0.20812   0.20002  -0.0357  0.0072  0.1000  -2.3646   0.0000   0.2810
  16.300   0.7284   0.20994   0.20184  -0.0366  0.0071  0.1000  -2.3667   0.0000   0.2820
  16.400   0.7323   0.21182   0.20372  -0.0376  0.0069  0.1000  -2.3626   0.0000   0.2829
  16.500   0.7361   0.21374   0.20565  -0.0386  0.0068  0.1000  -2.3524   0.0000   0.2839
  16.600   0.7400   0.21567   0.20759  -0.0396  0.0067  0.1000  -2.3434   0.0000   0.2848
  16.700   0.7439   0.21758   0.20950  -0.0406  0.0066  0.1000  -2.3361   0.0000   0.2857
  16.800   0.7479   0.21948   0.21141  -0.0416  0.0064  0.1000  -2.3303   0.0000   0.2866
  16.900   0.7519   0.22137   0.21331  -0.0425  0.0064  0.1000  -2.3257   0.0000   0.2875
  17.000   0.7559   0.22327   0.21521  -0.0435  0.0063  0.1000  -2.3257   0.0000   0.2884
  17.100   0.7599   0.22516   0.21710  -0.0445  0.0062  0.1000  -2.3262   0.0000   0.2892
  17.200   0.7640   0.22705   0.21900  -0.0455  0.0062  0.1000  -2.3265   0.0000   0.2900
  17.300   0.7680   0.22895   0.22090  -0.0464  0.0062  0.1000  -2.3270   0.0000   0.2909
  17.400   0.7721   0.23085   0.22281  -0.0474  0.0061  0.1000  -2.3277   0.0000   0.2917
  17.500   0.7762   0.23275   0.22472  -0.0484  0.0060  0.1000  -2.3291   0.0000   0.2925
  17.600   0.7803   0.23465   0.22662  -0.0494  0.0059  0.1000  -2.3316   0.0000   0.2933
  17.700   0.7845   0.23654   0.22852  -0.0504  0.0058  0.1000  -2.3355   0.0000   0.2941
  17.800   0.7886   0.23855   0.23052  -0.0514  0.0057  0.1000  -2.3288   0.0000   0.2949
  17.900   0.7927   0.24055   0.23253  -0.0524  0.0056  0.1000  -2.3219   0.0000   0.2957
  18.000   0.7968   0.24254   0.23453  -0.0534  0.0055  0.1000  -2.3163   0.0000   0.2965
  18.100   0.8009   0.24453   0.23653  -0.0545  0.0054  0.1000  -2.3120   0.0000   0.2973
  18.200   0.8051   0.24651   0.23852  -0.0555  0.0053  0.1000  -2.3087   0.0000   0.2980
  18.300   0.8092   0.24850   0.24051  -0.0565  0.0053  0.1000  -2.3060   0.0000   0.2988
  18.400   0.8134   0.25048   0.24249  -0.0575  0.0052  0.1000  -2.3037   0.0000   0.2995
  18.500   0.8176   0.25247   0.24449  -0.0585  0.0052  0.1000  -2.3013   0.0000   0.3003
  18.600   0.8218   0.25446   0.24649  -0.0595  0.0052  0.1000  -2.2988   0.0000   0.3010
  18.700   0.8260   0.25647   0.24850  -0.0605  0.0051  0.1000  -2.2971   0.0000   0.3017
  18.800   0.8303   0.25849   0.25053  -0.0616  0.0050  0.1000  -2.2993   0.0000   0.3024
  18.900   0.8345   0.26050   0.25255  -0.0626  0.0050  0.1000  -2.3019   0.0000   0.3031
  19.000   0.8387   0.26251   0.25457  -0.0636  0.0049  0.1000  -2.3054   0.0000   0.3038
  19.100   0.8429   0.26452   0.25658  -0.0646  0.0048  0.1000  -2.3099   0.0000   0.3045
  19.200   0.8472   0.26659   0.25865  -0.0657  0.0047  0.1000  -2.3114   0.0000   0.3052
  19.300   0.8514   0.26872   0.26079  -0.0667  0.0046  0.1000  -2.3067   0.0000   0.3059
  19.400   0.8556   0.27084   0.26291  -0.0678  0.0045  0.1000  -2.3031   0.0000   0.3066
  19.500   0.8598   0.27295   0.26504  -0.0688  0.0045  0.1000  -2.3005   0.0000   0.3073
  19.600   0.8641   0.27507   0.26716  -0.0699  0.0044  0.1000  -2.2986   0.0000   0.3079
  19.700   0.8683   0.27715   0.26925  -0.0709  0.0043  0.1000  -2.2974   0.0000   0.3086
  19.800   0.8726   0.27928   0.27138  -0.0720  0.0043  0.1000  -2.2965   0.0000   0.3092
  19.900   0.8769   0.28142   0.27353  -0.0730  0.0043  0.1000  -2.2955   0.0000   0.3099
  20.000   0.8811   0.28355   0.27567  -0.0741  0.0043  0.1000  -2.2944   0.0000   0.3105


