xflr5 v6.11

 Calculated polar for: NACA 63012 AIRFOIL

 1 1 Reynolds number fixed          Mach number fixed         

 xtrf =   0.050 (top)        0.100 (bottom)
 Mach =   0.200     Re =     0.400 e 6     Ncrit =   4.000

  alpha     CL        CD       CDp       Cm    Top Xtr Bot Xtr   Cpmin    Chinge    XCp    
 ------- -------- --------- --------- -------- ------- ------- -------- --------- ---------
  -2.000  -0.2187   0.01281   0.00232  -0.0015  0.0500  0.1000  -0.6408   0.0000   0.2389
  -1.900  -0.2079   0.01280   0.00229  -0.0014  0.0500  0.1000  -0.6093   0.0000   0.2390
  -1.800  -0.1970   0.01279   0.00226  -0.0013  0.0500  0.1000  -0.5785   0.0000   0.2392
  -1.700  -0.1862   0.01278   0.00224  -0.0013  0.0500  0.1000  -0.5493   0.0000   0.2393
  -1.600  -0.1753   0.01277   0.00221  -0.0012  0.0500  0.1000  -0.5203   0.0000   0.2394
  -1.500  -0.1645   0.01276   0.00219  -0.0011  0.0500  0.1000  -0.4969   0.0000   0.2396
  -1.400  -0.1536   0.01275   0.00217  -0.0010  0.0500  0.1000  -0.4808   0.0000   0.2397
  -1.300  -0.1428   0.01275   0.00215  -0.0009  0.0500  0.1000  -0.4678   0.0000   0.2399
  -1.200  -0.1319   0.01274   0.00213  -0.0008  0.0500  0.1000  -0.4549   0.0000   0.2400
  -1.100  -0.1210   0.01273   0.00212  -0.0007  0.0500  0.1000  -0.4421   0.0000   0.2402
  -1.000  -0.1102   0.01273   0.00210  -0.0006  0.0500  0.1000  -0.4293   0.0000   0.2405
  -0.900  -0.0993   0.01273   0.00209  -0.0005  0.0500  0.1000  -0.4178   0.0000   0.2407
  -0.800  -0.0885   0.01272   0.00208  -0.0005  0.0500  0.1000  -0.4110   0.0000   0.2410
  -0.700  -0.0776   0.01272   0.00207  -0.0004  0.0500  0.1000  -0.4045   0.0000   0.2414
  -0.600  -0.0667   0.01272   0.00206  -0.0003  0.0500  0.1000  -0.3979   0.0000   0.2420
  -0.500  -0.0559   0.01272   0.00205  -0.0002  0.0500  0.1000  -0.3913   0.0000   0.2427
  -0.400  -0.0450   0.01272   0.00205  -0.0001  0.0500  0.1000  -0.3848   0.0000   0.2438
  -0.300  -0.0341   0.01272   0.00205  -0.0000  0.0500  0.1000  -0.3784   0.0000   0.2455
  -0.200  -0.0233   0.01272   0.00204   0.0001  0.0500  0.1000  -0.3720   0.0000   0.2489
  -0.100  -0.0124   0.01273   0.00204   0.0001  0.0500  0.1000  -0.3656   0.0000   0.2581
   0.000  -0.0016   0.01273   0.00204   0.0002  0.0500  0.1000  -0.3592   0.0000   0.3947
   0.100   0.0093   0.01274   0.00205   0.0003  0.0500  0.1000  -0.3647   0.0000   0.2119
   0.200   0.0201   0.01274   0.00205   0.0004  0.0500  0.1000  -0.3711   0.0000   0.2261
   0.300   0.0310   0.01275   0.00206   0.0005  0.0500  0.1000  -0.3776   0.0000   0.2304
   0.400   0.0419   0.01276   0.00206   0.0006  0.0500  0.1000  -0.3840   0.0000   0.2324
   0.500   0.0527   0.01277   0.00207   0.0007  0.0500  0.1000  -0.3904   0.0000   0.2336
   0.600   0.0636   0.01278   0.00208   0.0007  0.0500  0.1000  -0.3971   0.0000   0.2343
   0.700   0.0744   0.01279   0.00210   0.0008  0.0500  0.1000  -0.4036   0.0000   0.2349
   0.800   0.0852   0.01280   0.00211   0.0009  0.0500  0.1000  -0.4102   0.0000   0.2353
   0.900   0.0961   0.01281   0.00212   0.0010  0.0500  0.1000  -0.4169   0.0000   0.2356
   1.000   0.1069   0.01282   0.00214   0.0011  0.0500  0.1000  -0.4239   0.0000   0.2358
   1.100   0.1178   0.01284   0.00216   0.0012  0.0500  0.1000  -0.4327   0.0000   0.2360
   1.200   0.1286   0.01285   0.00218   0.0013  0.0500  0.1000  -0.4420   0.0000   0.2361
   1.300   0.1394   0.01287   0.00220   0.0014  0.0500  0.1000  -0.4593   0.0000   0.2362
   1.400   0.1502   0.01288   0.00222   0.0015  0.0500  0.1000  -0.4769   0.0000   0.2363
   1.500   0.1611   0.01290   0.00225   0.0016  0.0500  0.1000  -0.4949   0.0000   0.2363
   1.600   0.1719   0.01292   0.00227   0.0017  0.0500  0.1000  -0.5159   0.0000   0.2364
   1.700   0.1827   0.01294   0.00230   0.0018  0.0500  0.1000  -0.5440   0.0000   0.2364
   1.800   0.1935   0.01296   0.00233   0.0019  0.0500  0.1000  -0.5731   0.0000   0.2364
   1.900   0.2043   0.01298   0.00236   0.0020  0.0500  0.1000  -0.6034   0.0000   0.2364
   2.000   0.2151   0.01300   0.00239   0.0021  0.0500  0.1000  -0.6349   0.0000   0.2364
   2.100   0.2259   0.01302   0.00243   0.0022  0.0500  0.1000  -0.6667   0.0000   0.2364
   2.200   0.2366   0.01305   0.00246   0.0023  0.0500  0.1000  -0.7008   0.0000   0.2363
   2.300   0.2474   0.01307   0.00250   0.0024  0.0500  0.1000  -0.7495   0.0000   0.2363
   2.400   0.2582   0.01310   0.00254   0.0025  0.0500  0.1000  -0.7990   0.0000   0.2363
   2.500   0.2689   0.01313   0.00258   0.0026  0.0500  0.1000  -0.8490   0.0000   0.2362
   2.600   0.2797   0.01315   0.00263   0.0027  0.0500  0.1000  -0.8998   0.0000   0.2361
   2.700   0.2904   0.01318   0.00267   0.0028  0.0500  0.1000  -0.9511   0.0000   0.2361
   2.800   0.3012   0.01321   0.00272   0.0029  0.0500  0.1000  -1.0032   0.0000   0.2360
   2.900   0.3119   0.01325   0.00277   0.0030  0.0500  0.1000  -1.0558   0.0000   0.2359
   3.000   0.3226   0.01328   0.00282   0.0031  0.0500  0.1000  -1.1091   0.0000   0.2359
   3.100   0.3333   0.01331   0.00287   0.0033  0.0500  0.1000  -1.1631   0.0000   0.2358
   3.200   0.3440   0.01335   0.00293   0.0034  0.0500  0.1000  -1.2176   0.0000   0.2357
   3.300   0.3547   0.01338   0.00298   0.0035  0.0500  0.1000  -1.2728   0.0000   0.2356
   3.400   0.3654   0.01342   0.00304   0.0036  0.0500  0.1000  -1.3285   0.0000   0.2355
   3.500   0.3761   0.01346   0.00310   0.0038  0.0500  0.1000  -1.3849   0.0000   0.2354
   3.600   0.3867   0.01350   0.00317   0.0039  0.0500  0.1000  -1.4418   0.0000   0.2352
   3.700   0.3974   0.01354   0.00323   0.0040  0.0500  0.1000  -1.4993   0.0000   0.2351
   3.800   0.4080   0.01359   0.00330   0.0042  0.0500  0.1000  -1.5606   0.0000   0.2350
   3.900   0.4186   0.01363   0.00337   0.0043  0.0500  0.1000  -1.6227   0.0000   0.2349
   4.000   0.4292   0.01368   0.00345   0.0045  0.0500  0.1000  -1.6854   0.0000   0.2347
   4.100   0.4398   0.01373   0.00352   0.0046  0.0500  0.1000  -1.7487   0.0000   0.2346
   4.200   0.4504   0.01377   0.00360   0.0048  0.0500  0.1000  -1.8125   0.0000   0.2344
   4.300   0.4609   0.01383   0.00368   0.0049  0.0500  0.1000  -1.8769   0.0000   0.2343
   4.400   0.4715   0.01388   0.00376   0.0051  0.0500  0.1000  -1.9418   0.0000   0.2341
   4.500   0.4820   0.01393   0.00385   0.0052  0.0500  0.1000  -2.0071   0.0000   0.2339
   4.600   0.4925   0.01399   0.00394   0.0054  0.0500  0.1000  -2.0728   0.0000   0.2338
   4.700   0.5029   0.01405   0.00404   0.0056  0.0500  0.1000  -2.1389   0.0000   0.2336
   4.800   0.5134   0.01412   0.00414   0.0058  0.0500  0.1000  -2.2052   0.0000   0.2334
   4.900   0.5237   0.01419   0.00425   0.0060  0.0493  0.1000  -2.2715   0.0000   0.2332
   5.000   0.5335   0.01431   0.00437   0.0062  0.0453  0.1000  -2.3372   0.0000   0.2328
   5.100   0.5433   0.01444   0.00449   0.0065  0.0417  0.1000  -2.4035   0.0000   0.2324
   5.200   0.5531   0.01455   0.00462   0.0068  0.0388  0.1000  -2.4703   0.0000   0.2321
   5.400   0.5727   0.01479   0.00488   0.0073  0.0339  0.1000  -2.6049   0.0000   0.2314
   5.500   0.5824   0.01492   0.00502   0.0076  0.0318  0.1000  -2.6759   0.0000   0.2311
   5.600   0.5922   0.01504   0.00516   0.0079  0.0300  0.1000  -2.7487   0.0000   0.2307
   5.700   0.6018   0.01517   0.00530   0.0082  0.0284  0.1000  -2.8219   0.0000   0.2304
   5.800   0.6114   0.01531   0.00545   0.0085  0.0270  0.1000  -2.8952   0.0000   0.2300
   5.900   0.6211   0.01543   0.00560   0.0088  0.0257  0.1000  -2.9690   0.0000   0.2297
   6.000   0.6307   0.01557   0.00576   0.0091  0.0246  0.1000  -3.0433   0.0000   0.2293
   6.100   0.6401   0.01572   0.00592   0.0094  0.0238  0.1000  -3.1176   0.0000   0.2289
   6.200   0.6497   0.01586   0.00609   0.0097  0.0230  0.1000  -3.1915   0.0000   0.2286
   6.300   0.6592   0.01600   0.00626   0.0101  0.0222  0.1000  -3.2660   0.0000   0.2282
   6.400   0.6686   0.01615   0.00644   0.0104  0.0215  0.1000  -3.3414   0.0000   0.2278
   6.500   0.6778   0.01631   0.00662   0.0108  0.0209  0.1000  -3.4177   0.0000   0.2274
   6.600   0.6870   0.01648   0.00681   0.0111  0.0204  0.1000  -3.4979   0.0000   0.2270
   6.700   0.6963   0.01664   0.00700   0.0115  0.0198  0.1000  -3.5782   0.0000   0.2266
   6.800   0.7055   0.01680   0.00720   0.0119  0.0193  0.1000  -3.6595   0.0000   0.2262
   6.900   0.7146   0.01697   0.00739   0.0123  0.0188  0.1000  -3.7421   0.0000   0.2258
   7.000   0.7236   0.01714   0.00759   0.0127  0.0184  0.1000  -3.8258   0.0000   0.2254
   7.100   0.7324   0.01733   0.00780   0.0131  0.0180  0.1000  -3.9097   0.0000   0.2249
   7.200   0.7412   0.01752   0.00802   0.0135  0.0177  0.1000  -3.9915   0.0000   0.2245
   7.300   0.7500   0.01771   0.00826   0.0139  0.0174  0.1000  -4.0723   0.0000   0.2240
   7.400   0.7586   0.01791   0.00849   0.0144  0.0171  0.1000  -4.1544   0.0000   0.2235
   7.500   0.7672   0.01812   0.00874   0.0148  0.0168  0.1000  -4.2411   0.0000   0.2230
   7.600   0.7757   0.01833   0.00898   0.0153  0.0166  0.1000  -4.3286   0.0000   0.2225
   7.700   0.7841   0.01855   0.00923   0.0158  0.0163  0.1000  -4.4167   0.0000   0.2220
   7.800   0.7924   0.01877   0.00948   0.0163  0.0161  0.1000  -4.5055   0.0000   0.2215
   7.900   0.8006   0.01899   0.00974   0.0168  0.0159  0.1000  -4.5953   0.0000   0.2210
   8.000   0.8087   0.01922   0.01000   0.0173  0.0157  0.1000  -4.6857   0.0000   0.2205
   8.100   0.8165   0.01947   0.01028   0.0178  0.0155  0.1000  -4.7757   0.0000   0.2199
   8.200   0.8243   0.01973   0.01057   0.0184  0.0153  0.1000  -4.8616   0.0000   0.2194
   8.300   0.8321   0.01998   0.01088   0.0189  0.0151  0.1000  -4.9499   0.0000   0.2188
   8.400   0.8398   0.02024   0.01118   0.0195  0.0149  0.1000  -5.0416   0.0000   0.2182
   8.500   0.8474   0.02051   0.01149   0.0201  0.0146  0.1000  -5.1340   0.0000   0.2176
   8.600   0.8548   0.02078   0.01181   0.0207  0.0145  0.1000  -5.2268   0.0000   0.2170
   8.700   0.8621   0.02105   0.01213   0.0213  0.0143  0.1000  -5.3198   0.0000   0.2164
   8.800   0.8693   0.02134   0.01245   0.0219  0.0141  0.1000  -5.4125   0.0000   0.2158
   8.900   0.8764   0.02163   0.01278   0.0225  0.0140  0.1000  -5.5055   0.0000   0.2151
   9.000   0.8833   0.02193   0.01312   0.0232  0.0139  0.1000  -5.5989   0.0000   0.2145
   9.100   0.8902   0.02223   0.01346   0.0238  0.0137  0.1000  -5.6929   0.0000   0.2139
   9.200   0.8968   0.02253   0.01380   0.0245  0.0136  0.1000  -5.7875   0.0000   0.2132
   9.300   0.9033   0.02285   0.01415   0.0251  0.0135  0.1000  -5.8849   0.0000   0.2125
   9.400   0.9093   0.02318   0.01451   0.0259  0.0134  0.1000  -5.9822   0.0000   0.2118
   9.500   0.9150   0.02353   0.01492   0.0267  0.0132  0.1000  -6.0696   0.0000   0.2109
   9.600   0.9203   0.02388   0.01534   0.0276  0.0131  0.1000  -6.1553   0.0000   0.2100
   9.700   0.9254   0.02424   0.01576   0.0285  0.0129  0.1000  -6.2404   0.0000   0.2090
   9.800   0.9302   0.02460   0.01618   0.0294  0.0128  0.1000  -6.3255   0.0000   0.2081
   9.900   0.9351   0.02498   0.01662   0.0303  0.0126  0.1000  -6.4117   0.0000   0.2071
  10.000   0.9400   0.02537   0.01707   0.0312  0.0125  0.1000  -6.4989   0.0000   0.2063
  10.100   0.9449   0.02578   0.01754   0.0320  0.0124  0.1000  -6.5863   0.0000   0.2054
  10.200   0.9497   0.02621   0.01803   0.0329  0.0123  0.1000  -6.6732   0.0000   0.2046
  10.300   0.9543   0.02664   0.01852   0.0337  0.0122  0.1000  -6.7602   0.0000   0.2038
  10.400   0.9589   0.02709   0.01902   0.0345  0.0121  0.1000  -6.8480   0.0000   0.2030
  10.500   0.9634   0.02753   0.01952   0.0353  0.0120  0.1000  -6.9365   0.0000   0.2022
  10.600   0.9677   0.02798   0.02002   0.0360  0.0119  0.1000  -7.0298   0.0000   0.2014
  10.700   0.9719   0.02844   0.02052   0.0368  0.0118  0.1000  -7.1235   0.0000   0.2007
  10.800   0.9758   0.02890   0.02104   0.0375  0.0117  0.1000  -7.2170   0.0000   0.1999
  10.900   0.9796   0.02938   0.02156   0.0382  0.0116  0.1000  -7.3098   0.0000   0.1992
  11.000   0.9830   0.02989   0.02211   0.0390  0.0115  0.1000  -7.4011   0.0000   0.1984
  11.100   0.9859   0.03049   0.02278   0.0397  0.0114  0.1000  -7.4787   0.0000   0.1976
  11.200   0.9883   0.03118   0.02358   0.0405  0.0113  0.1000  -7.5427   0.0000   0.1968
  11.300   0.9903   0.03191   0.02440   0.0412  0.0112  0.1000  -7.6052   0.0000   0.1960
  11.400   0.9920   0.03265   0.02525   0.0419  0.0111  0.1000  -7.6660   0.0000   0.1952
  11.500   0.9934   0.03342   0.02611   0.0426  0.0110  0.1000  -7.7252   0.0000   0.1944
  11.600   0.9945   0.03422   0.02699   0.0433  0.0109  0.1000  -7.7826   0.0000   0.1936
  11.700   0.9952   0.03504   0.02791   0.0439  0.0108  0.1000  -7.8376   0.0000   0.1929
  11.800   0.9956   0.03590   0.02885   0.0445  0.0107  0.1000  -7.8899   0.0000   0.1921
  11.900   0.9958   0.03679   0.02983   0.0450  0.0106  0.1000  -7.9405   0.0000   0.1914
  12.000   0.9956   0.03771   0.03083   0.0455  0.0106  0.1000  -7.9895   0.0000   0.1908
  12.100   0.9953   0.03866   0.03186   0.0459  0.0105  0.1000  -8.0372   0.0000   0.1902
  12.200   0.9947   0.03964   0.03292   0.0462  0.0104  0.1000  -8.0835   0.0000   0.1896
  12.300   0.9939   0.04065   0.03401   0.0465  0.0104  0.1000  -8.1285   0.0000   0.1891
  12.400   0.9930   0.04170   0.03513   0.0467  0.0103  0.1000  -8.1721   0.0000   0.1887
  12.500   0.9918   0.04279   0.03629   0.0469  0.0102  0.1000  -8.2143   0.0000   0.1883
  12.600   0.9904   0.04391   0.03748   0.0469  0.0102  0.1000  -8.2549   0.0000   0.1880
  12.700   0.9889   0.04508   0.03872   0.0470  0.0101  0.1000  -8.2952   0.0000   0.1877
  12.800   0.9871   0.04630   0.04000   0.0469  0.0101  0.1000  -8.3342   0.0000   0.1875
  12.900   0.9851   0.04757   0.04133   0.0467  0.0101  0.1000  -8.3707   0.0000   0.1873
  13.000   0.9829   0.04890   0.04272   0.0465  0.0100  0.1000  -8.4041   0.0000   0.1873
  13.100   0.9804   0.05029   0.04417   0.0462  0.0100  0.1000  -8.4341   0.0000   0.1873
  13.200   0.9776   0.05175   0.04569   0.0458  0.0099  0.1000  -8.4602   0.0000   0.1873
  13.300   0.9746   0.05328   0.04728   0.0453  0.0099  0.1000  -8.4819   0.0000   0.1875
  13.400   0.9712   0.05490   0.04896   0.0447  0.0099  0.1000  -8.4987   0.0000   0.1877
  13.500   0.9675   0.05660   0.05072   0.0440  0.0099  0.1000  -8.5100   0.0000   0.1880
  13.600   0.9634   0.05840   0.05258   0.0432  0.0098  0.1000  -8.5153   0.0000   0.1884
  13.700   0.9590   0.06031   0.05455   0.0423  0.0098  0.1000  -8.5139   0.0000   0.1889
  13.800   0.9523   0.06262   0.05693   0.0412  0.0098  0.1000  -8.4765   0.0000   0.1896
  13.900   0.9447   0.06514   0.05954   0.0398  0.0098  0.1000  -8.4247   0.0000   0.1905
  14.000   0.9371   0.06777   0.06224   0.0384  0.0098  0.1000  -8.3691   0.0000   0.1915
  14.100   0.9293   0.07051   0.06505   0.0368  0.0098  0.1000  -8.3096   0.0000   0.1927
  14.200   0.9215   0.07338   0.06799   0.0350  0.0098  0.1000  -8.2458   0.0000   0.1941
  14.300   0.9136   0.07636   0.07103   0.0331  0.0098  0.1000  -8.1777   0.0000   0.1956
  14.400   0.9058   0.07947   0.07420   0.0312  0.0098  0.1000  -8.1047   0.0000   0.1973
  14.500   0.8979   0.08271   0.07749   0.0291  0.0098  0.1000  -8.0267   0.0000   0.1991
  14.600   0.8900   0.08605   0.08088   0.0269  0.0098  0.1000  -7.9433   0.0000   0.2011
  14.700   0.8738   0.09138   0.08631   0.0235  0.0099  0.1000  -7.7088   0.0000   0.2044
  15.200   0.7009   0.14571   0.14072  -0.0055  0.0099  0.1000  -4.1336   0.0000   0.2406
  15.500   0.6856   0.15733   0.15228  -0.0110  0.0093  0.1000  -3.5118   0.0000   0.2488
  15.600   0.6852   0.15973   0.15468  -0.0122  0.0092  0.1000  -3.4319   0.0000   0.2505
  15.700   0.6855   0.16191   0.15686  -0.0133  0.0091  0.1000  -3.3726   0.0000   0.2520
  15.800   0.6864   0.16389   0.15884  -0.0143  0.0090  0.1000  -3.3305   0.0000   0.2533
  15.900   0.6878   0.16570   0.16064  -0.0152  0.0089  0.1000  -3.3035   0.0000   0.2546
  16.000   0.6896   0.16736   0.16230  -0.0161  0.0088  0.1000  -3.2898   0.0000   0.2557
  16.100   0.6916   0.16890   0.16384  -0.0170  0.0087  0.1000  -3.2878   0.0000   0.2567
  16.200   0.6940   0.17033   0.16528  -0.0178  0.0086  0.1000  -3.2955   0.0000   0.2577
  16.300   0.6965   0.17168   0.16664  -0.0186  0.0085  0.1000  -3.3115   0.0000   0.2586
  16.400   0.6992   0.17299   0.16795  -0.0194  0.0084  0.1000  -3.3317   0.0000   0.2594
  16.500   0.7020   0.17425   0.16921  -0.0201  0.0084  0.1000  -3.3592   0.0000   0.2603
  16.600   0.7019   0.17682   0.17177  -0.0213  0.0082  0.1000  -3.2513   0.0000   0.2620
  16.700   0.7022   0.17921   0.17416  -0.0225  0.0081  0.1000  -3.1543   0.0000   0.2636
  16.800   0.7033   0.18131   0.17626  -0.0236  0.0080  0.1000  -3.0869   0.0000   0.2649
  16.900   0.7047   0.18330   0.17825  -0.0246  0.0079  0.1000  -3.0308   0.0000   0.2662
  17.000   0.7064   0.18517   0.18012  -0.0256  0.0078  0.1000  -2.9863   0.0000   0.2674
  17.100   0.7084   0.18689   0.18184  -0.0265  0.0077  0.1000  -2.9558   0.0000   0.2685
  17.200   0.7107   0.18848   0.18344  -0.0274  0.0076  0.1000  -2.9383   0.0000   0.2695
  17.300   0.7132   0.18997   0.18492  -0.0282  0.0074  0.1000  -2.9319   0.0000   0.2705
  17.400   0.7159   0.19135   0.18631  -0.0291  0.0073  0.1000  -2.9346   0.0000   0.2713
  17.500   0.7188   0.19267   0.18764  -0.0299  0.0072  0.1000  -2.9445   0.0000   0.2721
  17.600   0.7218   0.19395   0.18892  -0.0306  0.0072  0.1000  -2.9595   0.0000   0.2729
  17.700   0.7248   0.19520   0.19018  -0.0314  0.0071  0.1000  -2.9774   0.0000   0.2736
  17.800   0.7278   0.19644   0.19142  -0.0322  0.0071  0.1000  -2.9944   0.0000   0.2744
  17.900   0.7309   0.19764   0.19263  -0.0329  0.0070  0.1000  -3.0135   0.0000   0.2751
  18.000   0.7326   0.19959   0.19457  -0.0340  0.0070  0.1000  -2.9438   0.0000   0.2763


